1
    SWAT Jun 11 2014    VER 2012/Rev 627                                                                 0/ 0/   0      0: 0: 0

    General Input/Output section (file.cio):                                        
    11/15/2017 12:00:00 AM ARCGIS-SWAT interface AV                                 
                                                                                    
         Number of years in run:   29
         Area of watershed:   106124.000 km2
         Random number generator cycles: 0, use default numbers

         Initial random number seed: wet/dry day prob        748932582
         Initial random number seed: radiation              1948832765
         Initial random number seed: precipitation           857034417
         Initial random number seed: 0.5 hr rainfall          67377721
         Initial random number seed: wind speed              366304404
         Initial random number seed: irrigation             1094585182
         Initial random number seed: relative humidity      1767585417
         Initial random number seed: max temperature         608439319
         Initial random number seed: min temperature         592757081

         Precipitation data used in run:
          Multiple gages read for watershed
             Daily rainfall data used

         Temperature data used in run:
          Multiple gages read for watershed

         PET method used: Penman-Monteith

         Rainfall/Runoff/Routing Option:
          Daily rainfall data
          Runoff estimated with curve number method
          Daily stream routing
           Variable Storage routing method
           Channel dimensions remain constant
           Subbasin algae/CBOD loadings not modeled
           In-stream nutrient transformations modeled using QUAL2E equations

         Subbasin Input Summary:
          Sub Latitude  Elev(m) #HRUs Ponds Elevbnds Wetlnd
            1    36.71   781.64    24                   
            2    36.71   678.08    44                   
            3    36.71   136.58    84                   
            4    36.71   471.80    72                   
            5    36.71   473.43    44                   
            6    36.71   544.07    88                   
            7    36.71   134.20    68                   
            8    36.71   941.69    64                   
            9    36.71   731.07    32                   
           10    36.71   518.13    84                   
           11    36.71   408.07    80                   
           12    36.71   586.65    68                   
           13    36.71   696.61    44                   
           14    36.71   149.94    84                   
           15    36.71   351.18    72                   
           16    36.71   340.91   116                   
           17    36.71   282.12    46                   
           18    36.71   510.37    56                   
           19    36.71   333.76   100                   
           20    36.71   277.71   100                   
           21    36.71   488.21    60                   
           22    36.71   314.82    80                   
           23    36.71   980.66    64                   
           24    36.71   431.53   104                   
           25    36.81   178.04    52                   
           26    36.81   416.43   112                   
           27    36.81   792.12    60                   
           28    36.81   349.04    92                   
           29    36.81   221.25    76                   
           30    36.81  1042.15    40                   
           31    36.81   904.58    32                   
           32    36.81   687.37    60                   
           33    36.81   235.85    68                   
           34    36.81   310.77    68                   
           35    36.81   261.36   104                   
           36    36.81   163.81   108                   
           37    36.81   364.18    88                   
           38    36.81   238.58   104                   
           39    36.81   696.39    64                   
           40    36.81   270.88    67                   
           41    36.81   357.54   120                   
           42    36.81   327.49    84                   
           43    36.81   308.38   108                   
           44    36.81   628.33    36                   
           45    36.81   417.77   100                   
           46    36.81   427.47    48                   
           47    36.81   371.37    80                   
           48    36.81   261.10    84                   
           49    36.81   142.44   120                   
           50    36.81   183.89   104                   
           51    36.81   221.14   112                   
           52    36.81   247.98    68                   
           53    36.81   244.93   124                   
           54    36.81   216.12    88                   
           55    36.81   326.22    88                   

         HRU Input Summary Table 1:
          Sub   HRU   Area(ha) Slope SlpLgth(m) Ovrlnd_N CondII_CN TimeConc(hr) ESCO EPCO
            1      1     125.29 0.006     121.95    0.369     45.53        2.548 0.82 0.55
            1      2     325.92 0.015     121.95    0.369     45.53        1.959 0.82 0.55
            1      3    1828.58 0.036      91.46    0.369     45.53        1.405 0.82 0.55
            1      4   10163.85 0.122      24.39    0.369     45.53        1.109 0.82 0.55
            1      5      11.50 0.007     121.95    0.369     45.53        2.420 0.82 0.55
            1      6     225.66 0.037      91.46    0.369     45.53        1.260 0.82 0.55
            1      7      41.63 0.015     121.95    0.369     45.53        1.930 0.82 0.55
            1      8   37912.23 0.380       9.15    0.369     45.53        2.429 0.82 0.55
            1      9      89.10 0.015     121.95    0.369     45.53        1.935 0.82 0.55
            1     10      45.97 0.006     121.95    0.369     45.53        2.539 0.82 0.55
            1     11   43054.11 0.343       9.15    0.369     45.53        2.701 0.82 0.55
            1     12     529.89 0.037      91.46    0.369     45.53        1.289 0.82 0.55
            1     13     150.89 0.006     121.95    0.369     45.53        2.551 0.82 0.55
            1     14   29661.85 0.225      15.24    0.369     45.53        2.080 0.82 0.55
            1     15    1558.56 0.036      91.46    0.369     45.53        1.384 0.82 0.55
            1     16     289.14 0.016     121.95    0.369     45.53        1.919 0.82 0.55
            1     17     347.88 0.015     121.95    0.369     96.95        1.961 0.82 0.55
            1     18     145.23 0.006     121.95    0.369     96.95        2.550 0.82 0.55
            1     19    8045.73 0.135      24.39    0.369     96.95        0.965 0.82 0.55
            1     20    1675.62 0.036      91.46    0.369     96.95        1.393 0.82 0.55
            1     21   34704.82 0.141      24.39    0.369     45.53        2.479 0.82 0.55
            1     22     359.38 0.006     121.95    0.369     45.53        2.571 0.82 0.55
            1     23     845.77 0.015     121.95    0.369     45.53        2.005 0.82 0.55
            1     24    4399.22 0.036      91.46    0.369     45.53        1.590 0.82 0.55
            2     25     123.04 0.036      91.46    0.404     52.12        1.347 0.89 0.25
            2     26    1119.78 0.157      24.39    0.404     52.12        0.605 0.89 0.25
            2     27      24.50 0.016     121.95    0.404     52.12        2.000 0.89 0.25
            2     28       7.48 0.005     121.95    0.404     52.12        2.827 0.89 0.25
            2     29     119.31 0.016     121.95    0.404     52.12        2.024 0.89 0.25
            2     30    5776.44 0.163      18.29    0.404     52.12        1.256 0.89 0.25
            2     31     654.43 0.036      91.46    0.404     52.12        1.454 0.89 0.25
            2     32      48.72 0.006     121.95    0.404     52.12        2.688 0.89 0.25
            2     33     370.26 0.034      91.46    0.404     52.12        1.422 0.89 0.25
            2     34     669.10 0.129      24.39    0.404     52.12        0.548 0.89 0.25
            2     35     155.31 0.015     121.95    0.404     52.12        2.071 0.89 0.25
            2     36      74.75 0.006     121.95    0.404     52.12        2.695 0.89 0.25
            2     37     355.81 0.037      91.46    0.404     52.12        1.386 0.89 0.25
            2     38      30.15 0.006     121.95    0.404     52.12        2.683 0.89 0.25
            2     39      60.83 0.015     121.95    0.404     52.12        2.049 0.89 0.25
            2     40   46955.89 0.382       9.15    0.404     52.12        6.028 0.89 0.25
            2     41     541.57 0.036      91.46    0.404     52.12        1.433 0.89 0.25
            2     42      89.41 0.016     121.95    0.404     52.12        2.017 0.89 0.25
            2     43   32737.93 0.296       9.15    0.404     52.12        4.453 0.89 0.25
            2     44      37.23 0.006     121.95    0.404     52.12        2.685 0.89 0.25
            2     45   35003.48 0.365       9.15    0.404     52.12        4.701 0.89 0.25
            2     46      41.94 0.015     121.95    0.404     52.12        2.044 0.89 0.25
            2     47     287.37 0.036      91.46    0.404     52.12        1.382 0.89 0.25
            2     48      18.87 0.006     121.95    0.404     52.12        2.680 0.89 0.25
            2     49   19959.47 0.356       9.15    0.404     52.12        2.941 0.89 0.25
            2     50      65.94 0.015     121.95    0.404     52.12        2.050 0.89 0.25
            2     51     302.96 0.036      91.46    0.404     52.12        1.386 0.89 0.25
            2     52      54.28 0.004     121.95    0.404     52.12        3.036 0.89 0.25
            2     53     100.54 0.036      91.46    0.404     97.08        1.342 0.89 0.25
            2     54      27.27 0.015     121.95    0.404     97.08        2.040 0.89 0.25
            2     55    1164.30 0.246      15.24    0.404     97.08        0.483 0.89 0.25
            2     56      14.82 0.005     121.95    0.404     97.08        2.829 0.89 0.25
            2     57     392.37 0.036      91.46    0.404     97.08        1.404 0.89 0.25
            2     58    3979.73 0.199      18.29    0.404     97.08        0.976 0.89 0.25
            2     59      32.51 0.006     121.95    0.404     97.08        2.684 0.89 0.25
            2     60      76.11 0.016     121.95    0.404     97.08        2.014 0.89 0.25
            2     61      19.02 0.006     121.95    0.404     97.08        2.680 0.89 0.25
            2     62     232.73 0.036      91.46    0.404     97.08        1.371 0.89 0.25
            2     63      43.79 0.016     121.95    0.404     97.08        2.005 0.89 0.25
            2     64    1501.09 0.200      18.29    0.404     97.08        0.588 0.89 0.25
            2     65     153.44 0.006     121.95    0.404     52.12        2.713 0.89 0.25
            2     66   33372.06 0.197      18.29    0.404     52.12        4.651 0.89 0.25
            2     67     328.92 0.015     121.95    0.404     52.12        2.108 0.89 0.25
            2     68    1944.26 0.036      91.46    0.404     52.12        1.676 0.89 0.25
            3     69     783.99 0.030      91.46    0.443     73.51        1.605 0.36 0.74
            3     70     116.43 0.070      60.98    0.443     73.51        0.918 0.36 0.74
            3     71    1177.72 0.014     121.95    0.443     73.51        2.389 0.36 0.74
            3     72    2828.89 0.005     121.95    0.443     73.51        3.409 0.36 0.74
            3     73     512.04 0.065      60.98    0.443     73.51        1.007 0.36 0.74
            3     74    2816.54 0.006     121.95    0.443     73.51        3.249 0.36 0.74
            3     75    3627.80 0.014     121.95    0.443     73.51        2.719 0.36 0.74
            3     76    3436.17 0.030      91.46    0.443     73.51        1.970 0.36 0.74
            3     77     563.83 0.006     121.95    0.443     73.51        2.930 0.36 0.74
            3     78    1045.24 0.015     121.95    0.443     73.51        2.324 0.36 0.74
            3     79    1040.49 0.071      60.98    0.443     73.51        1.065 0.36 0.74
            3     80    2256.45 0.033      91.46    0.443     73.51        1.774 0.36 0.74
            3     81    1191.18 0.014     121.95    0.443     73.51        2.391 0.36 0.74
            3     82    3165.21 0.005     121.95    0.443     73.51        3.453 0.36 0.74
            3     83     760.75 0.030      91.46    0.443     73.51        1.602 0.36 0.74
            3     84     145.07 0.073      60.98    0.443     73.51        0.913 0.36 0.74
            3     85     239.99 0.065      60.98    0.443     73.51        0.961 0.36 0.74
            3     86    1392.45 0.006     121.95    0.443     73.51        3.054 0.36 0.74
            3     87    1546.20 0.030      91.46    0.443     73.51        1.717 0.36 0.74
            3     88    1813.64 0.014     121.95    0.443     73.51        2.479 0.36 0.74
            3     89     672.32 0.015     121.95    0.443     73.51        2.268 0.36 0.74
            3     90     377.70 0.007     121.95    0.443     73.51        2.771 0.36 0.74
            3     91    1535.78 0.033      91.46    0.443     73.51        1.675 0.36 0.74
            3     92     799.91 0.072      60.98    0.443     73.51        1.025 0.36 0.74
            3     93    3407.93 0.014     121.95    0.443     73.51        2.691 0.36 0.74
            3     94    2817.72 0.006     121.95    0.443     73.51        3.249 0.36 0.74
            3     95    2988.09 0.030      91.46    0.443     73.51        1.912 0.36 0.74
            3     96     379.67 0.064      60.98    0.443     73.51        0.990 0.36 0.74
            3     97     413.18 0.007     121.95    0.443     73.51        2.777 0.36 0.74
            3     98     858.01 0.015     121.95    0.443     73.51        2.296 0.36 0.74
            3     99     743.82 0.070      60.98    0.443     73.51        1.024 0.36 0.74
            3    100    1780.96 0.033      91.46    0.443     73.51        1.709 0.36 0.74
            3    101      57.60 0.078      60.98    0.443     73.51        0.878 0.36 0.74
            3    102     210.89 0.014     121.95    0.443     73.51        2.235 0.36 0.74
            3    103     380.91 0.005     121.95    0.443     73.51        3.058 0.36 0.74
            3    104     160.09 0.031      91.46    0.443     73.51        1.487 0.36 0.74
            3    105     187.79 0.069      60.98    0.443     73.51        0.936 0.36 0.74
            3    106     558.78 0.032      91.46    0.443     73.51        1.542 0.36 0.74
            3    107     378.39 0.015     121.95    0.443     73.51        2.220 0.36 0.74
            3    108     252.35 0.006     121.95    0.443     73.51        2.877 0.36 0.74
            3    109     717.24 0.077      60.98    0.443     73.51        0.995 0.36 0.74
            3    110     909.46 0.034      91.46    0.443     73.51        1.570 0.36 0.74
            3    111     338.11 0.015     121.95    0.443     73.51        2.213 0.36 0.74
            3    112     154.62 0.006     121.95    0.443     73.51        2.859 0.36 0.74
            3    113    2008.53 0.032      91.46    0.443     73.51        1.754 0.36 0.74
            3    114    2470.55 0.106      60.98    0.443     73.51        1.165 0.36 0.74
            3    115    6480.94 0.004     121.95    0.443     73.51        4.068 0.36 0.74
            3    116    2163.24 0.014     121.95    0.443     73.51        2.527 0.36 0.74
            3    117    2143.66 0.006     121.95    0.443     73.51        3.159 0.36 0.74
            3    118    3028.51 0.015     121.95    0.443     73.51        2.597 0.36 0.74
            3    119    5007.72 0.034      91.46    0.443     73.51        2.113 0.36 0.74
            3    120    4847.81 0.083      60.98    0.443     73.51        1.527 0.36 0.74
            3    121    2123.54 0.015     121.95    0.443     73.51        2.477 0.36 0.74
            3    122    9623.39 0.036      91.46    0.443     73.51        2.628 0.36 0.74
            3    123   25819.42 0.096      60.98    0.443     73.51        3.749 0.36 0.74
            3    124    1023.06 0.006     121.95    0.443     73.51        3.000 0.36 0.74
            3    125    1418.58 0.006     121.95    0.443     97.51        3.058 0.36 0.74
            3    126    2003.95 0.015     121.95    0.443     97.51        2.461 0.36 0.74
            3    127     788.14 0.072      60.98    0.443     97.51        1.023 0.36 0.74
            3    128    2280.32 0.032      91.46    0.443     97.51        1.791 0.36 0.74
            3    129     936.21 0.015     121.95    0.443     97.51        2.308 0.36 0.74
            3    130     450.16 0.007     121.95    0.443     97.51        2.783 0.36 0.74
            3    131    2367.36 0.035      91.46    0.443     97.51        1.764 0.36 0.74
            3    132    2331.90 0.082      60.98    0.443     97.51        1.209 0.36 0.74
            3    133    3565.49 0.015     121.95    0.443     73.51        2.666 0.36 0.74
            3    134    5733.49 0.033      91.46    0.443     73.51        2.213 0.36 0.74
            3    135    2359.60 0.006     121.95    0.443     73.51        3.188 0.36 0.74
            3    136    2566.25 0.072      60.98    0.443     73.51        1.274 0.36 0.74
            3    137    2663.77 0.015     121.95    0.443     73.51        2.549 0.36 0.74
            3    138    9938.64 0.080      60.98    0.443     73.51        2.131 0.36 0.74
            3    139    9112.58 0.035      91.46    0.443     73.51        2.582 0.36 0.74
            3    140    1164.83 0.007     121.95    0.443     73.51        2.894 0.36 0.74
            3    141    2125.94 0.004     121.95    0.443     73.51        3.522 0.36 0.74
            3    142     182.97 0.029      91.46    0.443     73.51        1.521 0.36 0.74
            3    143     353.74 0.014     121.95    0.443     73.51        2.261 0.36 0.74
            3    144      43.64 0.094      60.98    0.443     73.51        0.828 0.36 0.74
            3    145     308.78 0.015     121.95    0.443     73.51        2.208 0.36 0.74
            3    146     826.04 0.004     121.95    0.443     73.51        3.336 0.36 0.74
            3    147     423.11 0.091      60.98    0.443     73.51        0.905 0.36 0.74
            3    148     430.58 0.033      91.46    0.443     73.51        1.508 0.36 0.74
            3    149     802.56 0.004     121.95    0.443     73.51        3.332 0.36 0.74
            3    150     170.28 0.014     121.95    0.443     73.51        2.228 0.36 0.74
            3    151     144.78 0.086      60.98    0.443     73.51        0.870 0.36 0.74
            3    152     194.23 0.032      91.46    0.443     73.51        1.480 0.36 0.74
            4    153       9.58 0.006     121.95    0.369     45.53        2.535 0.82 0.55
            4    154    1056.17 0.132      24.39    0.369     45.53        0.510 0.82 0.55
            4    155      26.29 0.016     121.95    0.369     45.53        1.892 0.82 0.55
            4    156     165.12 0.037      91.46    0.369     45.53        1.260 0.82 0.55
            4    157      31.22 0.005     121.95    0.369     45.53        2.681 0.82 0.55
            4    158      47.37 0.015     121.95    0.369     45.53        1.932 0.82 0.55
            4    159     122.40 0.034      91.46    0.369     45.53        1.286 0.82 0.55
            4    160     841.62 0.158      24.39    0.369     45.53        0.467 0.82 0.55
            4    161      24.73 0.015     121.95    0.369     45.53        1.929 0.82 0.55
            4    162    2091.65 0.213      15.24    0.369     45.53        0.483 0.82 0.55
            4    163     108.45 0.036      91.46    0.369     45.53        1.262 0.82 0.55
            4    164      20.13 0.003     121.95    0.369     45.53        3.122 0.82 0.55
            4    165       7.42 0.007     121.95    0.369     45.53        2.420 0.82 0.55
            4    166     137.18 0.037      91.46    0.369     45.53        1.256 0.82 0.55
            4    167      23.08 0.016     121.95    0.369     45.53        1.892 0.82 0.55
            4    168    2631.75 0.209      15.24    0.369     45.53        0.536 0.82 0.55
            4    169       0.35 0.007     121.95    0.369     45.53        2.418 0.82 0.55
            4    170    1863.69 0.356       9.15    0.369     45.53        0.369 0.82 0.55
            4    171      11.54 0.038      91.46    0.369     45.53        1.227 0.82 0.55
            4    172       1.18 0.014     121.95    0.369     45.53        1.964 0.82 0.55
            4    173     293.42 0.036      91.46    0.369     45.53        1.287 0.82 0.55
            4    174    6292.61 0.254       9.15    0.369     45.53        0.787 0.82 0.55
            4    175      74.53 0.015     121.95    0.369     45.53        1.937 0.82 0.55
            4    176      52.51 0.005     121.95    0.369     45.53        2.684 0.82 0.55
            4    177      26.14 0.038      91.46    0.369     45.53        1.230 0.82 0.55
            4    178    2245.31 0.347       9.15    0.369     45.53        0.407 0.82 0.55
            4    179       3.89 0.015     121.95    0.369     45.53        1.925 0.82 0.55
            4    180       1.65 0.007     121.95    0.369     45.53        2.419 0.82 0.55
            4    181      12.23 0.004     121.95    0.369     96.95        2.863 0.82 0.55
            4    182      95.43 0.037      91.46    0.369     96.95        1.250 0.82 0.55
            4    183      16.66 0.015     121.95    0.369     96.95        1.927 0.82 0.55
            4    184     884.93 0.159      24.39    0.369     96.95        0.471 0.82 0.55
            4    185      52.78 0.016     121.95    0.369     96.95        1.896 0.82 0.55
            4    186      17.59 0.007     121.95    0.369     96.95        2.422 0.82 0.55
            4    187     305.03 0.036      91.46    0.369     96.95        1.288 0.82 0.55
            4    188    2140.94 0.149      24.39    0.369     96.95        0.606 0.82 0.55
            4    189     132.36 0.005     121.95    0.369     96.95        2.696 0.82 0.55
            4    190     142.15 0.015     121.95    0.369     96.95        1.946 0.82 0.55
            4    191     366.32 0.035      91.46    0.369     96.95        1.306 0.82 0.55
            4    192    1994.95 0.173      18.29    0.369     96.95        0.520 0.82 0.55
            4    193      12.72 0.007     121.95    0.369     51.30        2.421 0.82 0.55
            4    194     219.91 0.036      91.46    0.369     51.30        1.278 0.82 0.55
            4    195    1214.01 0.133      24.39    0.369     51.30        0.526 0.82 0.55
            4    196      46.36 0.015     121.95    0.369     51.30        1.932 0.82 0.55
            4    197      82.55 0.015     121.95    0.369     51.30        1.938 0.82 0.55
            4    198      80.82 0.005     121.95    0.369     51.30        2.688 0.82 0.55
            4    199     185.92 0.034      91.46    0.369     51.30        1.295 0.82 0.55
            4    200     752.92 0.154      24.39    0.369     51.30        0.460 0.82 0.55
            4    201     254.83 0.033      91.46    0.369     51.30        1.315 0.82 0.55
            4    202      90.19 0.007     121.95    0.369     51.30        2.433 0.82 0.55
            4    203     142.33 0.015     121.95    0.369     51.30        1.946 0.82 0.55
            4    204     316.57 0.126      24.39    0.369     51.30        0.432 0.82 0.55
            4    205      45.77 0.036      91.46    0.369     65.47        1.253 0.82 0.55
            4    206      14.13 0.015     121.95    0.369     65.47        1.927 0.82 0.55
            4    207     136.66 0.113      60.98    0.369     65.47        0.714 0.82 0.55
            4    208       5.58 0.007     121.95    0.369     65.47        2.419 0.82 0.55
            4    209      47.30 0.015     121.95    0.369     65.47        1.932 0.82 0.55
            4    210      67.78 0.005     121.95    0.369     65.47        2.687 0.82 0.55
            4    211     192.72 0.128      24.39    0.369     65.47        0.414 0.82 0.55
            4    212      86.29 0.034      91.46    0.369     65.47        1.281 0.82 0.55
            4    213      92.74 0.107      60.98    0.369     65.47        0.719 0.82 0.55
            4    214      79.83 0.015     121.95    0.369     65.47        1.937 0.82 0.55
            4    215     119.68 0.032      91.46    0.369     65.47        1.309 0.82 0.55
            4    216      67.34 0.006     121.95    0.369     65.47        2.544 0.82 0.55
            4    217      36.93 0.006     121.95    0.369     45.53        2.539 0.82 0.55
            4    218     108.08 0.015     121.95    0.369     45.53        1.941 0.82 0.55
            4    219     632.30 0.037      91.46    0.369     45.53        1.317 0.82 0.55
            4    220    4020.86 0.132      24.39    0.369     45.53        0.796 0.82 0.55
            4    221     135.35 0.006     121.95    0.369     45.53        2.554 0.82 0.55
            4    222     549.92 0.035      91.46    0.369     45.53        1.328 0.82 0.55
            4    223    3477.19 0.158      24.39    0.369     45.53        0.726 0.82 0.55
            4    224     191.16 0.015     121.95    0.369     45.53        1.953 0.82 0.55
            5    225       2.44 0.007     121.95    0.369     45.53        2.419 0.82 0.55
            5    226       6.70 0.015     121.95    0.369     45.53        1.926 0.82 0.55
            5    227      44.75 0.036      91.46    0.369     45.53        1.256 0.82 0.55
            5    228     459.78 0.144      24.39    0.369     45.53        0.456 0.82 0.55
            5    229     837.94 0.129      24.39    0.369     45.53        0.527 0.82 0.55
            5    230      12.22 0.006     121.95    0.369     45.53        2.536 0.82 0.55
            5    231      28.59 0.016     121.95    0.369     45.53        1.894 0.82 0.55
            5    232     149.33 0.036      91.46    0.369     45.53        1.277 0.82 0.55
            5    233      16.27 0.015     121.95    0.369     45.53        1.928 0.82 0.55
            5    234    2079.66 0.226      15.24    0.369     45.53        0.561 0.82 0.55
            5    235      77.35 0.036      91.46    0.369     45.53        1.263 0.82 0.55
            5    236      14.97 0.004     121.95    0.369     45.53        2.864 0.82 0.55
            5    237      29.84 0.015     121.95    0.369     45.53        1.932 0.82 0.55
            5    238      14.11 0.006     121.95    0.369     45.53        2.537 0.82 0.55
            5    239    1989.82 0.195      18.29    0.369     45.53        0.590 0.82 0.55
            5    240     144.25 0.036      91.46    0.369     45.53        1.276 0.82 0.55
            5    241       1.29 0.005     121.95    0.369     45.53        2.675 0.82 0.55
            5    242      10.67 0.038      91.46    0.369     45.53        1.228 0.82 0.55
            5    243     570.30 0.251       9.15    0.369     45.53        0.277 0.82 0.55
            5    244       1.51 0.016     121.95    0.369     45.53        1.888 0.82 0.55
            5    245       9.47 0.005     121.95    0.369     96.95        2.678 0.82 0.55
            5    246    1143.64 0.155      24.39    0.369     96.95        0.551 0.82 0.55
            5    247      22.34 0.015     121.95    0.369     96.95        1.930 0.82 0.55
            5    248     132.53 0.037      91.46    0.369     96.95        1.263 0.82 0.55
            5    249      57.02 0.015     121.95    0.369     96.95        1.937 0.82 0.55
            5    250     269.78 0.036      91.46    0.369     96.95        1.298 0.82 0.55
            5    251    1528.23 0.134      24.39    0.369     96.95        0.622 0.82 0.55
            5    252      29.72 0.006     121.95    0.369     96.95        2.540 0.82 0.55
            5    253       3.35 0.005     121.95    0.369     51.30        2.676 0.82 0.55
            5    254      32.65 0.037      91.46    0.369     51.30        1.243 0.82 0.55
            5    255     288.68 0.138      24.39    0.369     51.30        0.433 0.82 0.55
            5    256       5.62 0.016     121.95    0.369     51.30        1.889 0.82 0.55
            5    257      13.41 0.006     121.95    0.369     51.30        2.536 0.82 0.55
            5    258      20.87 0.015     121.95    0.369     51.30        1.930 0.82 0.55
            5    259     112.66 0.036      91.46    0.369     51.30        1.270 0.82 0.55
            5    260     455.72 0.118      60.98    0.369     51.30        0.768 0.82 0.55
            5    261      31.75 0.016     121.95    0.369     45.53        1.895 0.82 0.55
            5    262      13.78 0.006     121.95    0.369     45.53        2.536 0.82 0.55
            5    263     208.08 0.037      91.46    0.369     45.53        1.277 0.82 0.55
            5    264    1950.83 0.143      24.39    0.369     45.53        0.672 0.82 0.55
            5    265      36.17 0.006     121.95    0.369     45.53        2.542 0.82 0.55
            5    266     498.82 0.036      91.46    0.369     45.53        1.336 0.82 0.55
            5    267      96.23 0.015     121.95    0.369     45.53        1.945 0.82 0.55
            5    268    2888.51 0.129      24.39    0.369     45.53        0.806 0.82 0.55
            6    269       3.52 0.006     121.95    0.369     45.53        2.534 0.82 0.55
            6    270     205.88 0.108      60.98    0.369     45.53        0.740 0.82 0.55
            6    271      55.70 0.037      91.46    0.369     45.53        1.247 0.82 0.55
            6    272      10.02 0.015     121.95    0.369     45.53        1.927 0.82 0.55
            6    273      16.40 0.006     121.95    0.369     45.53        2.537 0.82 0.55
            6    274      47.24 0.016     121.95    0.369     45.53        1.897 0.82 0.55
            6    275     225.79 0.036      91.46    0.369     45.53        1.286 0.82 0.55
            6    276    1375.79 0.124      24.39    0.369     45.53        0.589 0.82 0.55
            6    277      26.05 0.016     121.95    0.369     45.53        1.893 0.82 0.55
            6    278     156.39 0.037      91.46    0.369     45.53        1.265 0.82 0.55
            6    279       9.25 0.006     121.95    0.369     45.53        2.535 0.82 0.55
            6    280     938.11 0.124      24.39    0.369     45.53        0.532 0.82 0.55
            6    281       8.34 0.005     121.95    0.369     45.53        2.677 0.82 0.55
            6    282      14.09 0.015     121.95    0.369     45.53        1.928 0.82 0.55
            6    283     370.17 0.121      24.39    0.369     45.53        0.455 0.82 0.55
            6    284      76.11 0.036      91.46    0.369     45.53        1.261 0.82 0.55
            6    285      39.91 0.016     121.95    0.369     45.53        1.896 0.82 0.55
            6    286      19.17 0.007     121.95    0.369     45.53        2.423 0.82 0.55
            6    287     203.18 0.037      91.46    0.369     45.53        1.272 0.82 0.55
            6    288    1053.79 0.121      24.39    0.369     45.53        0.551 0.82 0.55
            6    289     459.36 0.169      18.29    0.369     45.53        0.375 0.82 0.55
            6    290      18.94 0.015     121.95    0.369     45.53        1.929 0.82 0.55
            6    291      14.77 0.004     121.95    0.369     45.53        2.864 0.82 0.55
            6    292      71.94 0.036      91.46    0.369     45.53        1.260 0.82 0.55
            6    293      76.43 0.015     121.95    0.369     45.53        1.940 0.82 0.55
            6    294     415.84 0.036      91.46    0.369     45.53        1.315 0.82 0.55
            6    295      78.91 0.004     121.95    0.369     45.53        2.877 0.82 0.55
            6    296   18892.78 0.352       9.15    0.369     45.53        2.145 0.82 0.55
            6    297    6615.03 0.349       9.15    0.369     45.53        0.951 0.82 0.55
            6    298       1.31 0.007     121.95    0.369     45.53        2.419 0.82 0.55
            6    299       5.69 0.016     121.95    0.369     45.53        1.889 0.82 0.55
            6    300      56.74 0.038      91.46    0.369     45.53        1.237 0.82 0.55
            6    301      56.74 0.016     121.95    0.369     45.53        1.899 0.82 0.55
            6    302     322.20 0.037      91.46    0.369     45.53        1.291 0.82 0.55
            6    303    6977.33 0.213      15.24    0.369     45.53        1.080 0.82 0.55
            6    304      30.92 0.005     121.95    0.369     45.53        2.682 0.82 0.55
            6    305     229.97 0.036      91.46    0.369     96.95        1.287 0.82 0.55
            6    306    1192.46 0.137      24.39    0.369     96.95        0.554 0.82 0.55
            6    307      48.92 0.016     121.95    0.369     96.95        1.898 0.82 0.55
            6    308      17.09 0.006     121.95    0.369     96.95        2.537 0.82 0.55
            6    309      51.62 0.015     121.95    0.369     96.95        1.935 0.82 0.55
            6    310    1554.67 0.130      24.39    0.369     96.95        0.607 0.82 0.55
            6    311     296.09 0.037      91.46    0.369     96.95        1.287 0.82 0.55
            6    312      24.96 0.006     121.95    0.369     96.95        2.539 0.82 0.55
            6    313    1190.32 0.235      15.24    0.369     96.95        0.419 0.82 0.55
            6    314      32.83 0.015     121.95    0.369     96.95        1.932 0.82 0.55
            6    315      18.78 0.005     121.95    0.369     96.95        2.680 0.82 0.55
            6    316     148.32 0.036      91.46    0.369     96.95        1.274 0.82 0.55
            6    317     307.34 0.036      91.46    0.369     96.95        1.299 0.82 0.55
            6    318    1556.92 0.129      24.39    0.369     96.95        0.608 0.82 0.55
            6    319      58.70 0.015     121.95    0.369     96.95        1.937 0.82 0.55
            6    320      26.88 0.006     121.95    0.369     96.95        2.539 0.82 0.55
            6    321      42.39 0.006     121.95    0.369     96.95        2.542 0.82 0.55
            6    322     451.95 0.036      91.46    0.369     96.95        1.321 0.82 0.55
            6    323      88.39 0.015     121.95    0.369     96.95        1.942 0.82 0.55
            6    324    2476.57 0.132      24.39    0.369     96.95        0.717 0.82 0.55
            6    325      81.07 0.036      91.46    0.369     51.30        1.262 0.82 0.55
            6    326      19.07 0.015     121.95    0.369     51.30        1.929 0.82 0.55
            6    327       5.61 0.007     121.95    0.369     51.30        2.420 0.82 0.55
            6    328     348.83 0.124      24.39    0.369     51.30        0.449 0.82 0.55
            6    329      19.77 0.015     121.95    0.369     51.30        1.929 0.82 0.55
            6    330     492.25 0.113      60.98    0.369     51.30        0.774 0.82 0.55
            6    331     116.74 0.036      91.46    0.369     51.30        1.268 0.82 0.55
            6    332       7.13 0.006     121.95    0.369     51.30        2.535 0.82 0.55
            6    333     913.71 0.111      60.98    0.369     51.30        0.837 0.82 0.55
            6    334     294.79 0.036      91.46    0.369     51.30        1.297 0.82 0.55
            6    335      24.56 0.006     121.95    0.369     51.30        2.538 0.82 0.55
            6    336      61.88 0.015     121.95    0.369     51.30        1.937 0.82 0.55
            6    337      61.65 0.015     121.95    0.369     51.30        1.937 0.82 0.55
            6    338      26.91 0.005     121.95    0.369     51.30        2.681 0.82 0.55
            6    339     280.40 0.036      91.46    0.369     51.30        1.295 0.82 0.55
            6    340     969.16 0.116      60.98    0.369     51.30        0.835 0.82 0.55
            6    341     694.85 0.037      91.46    0.369     45.53        1.345 0.82 0.55
            6    342    4199.97 0.125      24.39    0.369     45.53        0.921 0.82 0.55
            6    343     110.50 0.015     121.95    0.369     45.53        1.946 0.82 0.55
            6    344      42.74 0.006     121.95    0.369     45.53        2.542 0.82 0.55
            6    345    4644.52 0.120      24.39    0.369     45.53        0.975 0.82 0.55
            6    346      62.88 0.006     121.95    0.369     45.53        2.546 0.82 0.55
            6    347     882.27 0.036      91.46    0.369     45.53        1.381 0.82 0.55
            6    348     155.67 0.016     121.95    0.369     45.53        1.917 0.82 0.55
            6    349     383.50 0.036      91.46    0.369     45.53        1.311 0.82 0.55
            6    350    2149.00 0.168      18.29    0.369     45.53        0.595 0.82 0.55
            6    351      51.16 0.005     121.95    0.369     45.53        2.686 0.82 0.55
            6    352      78.39 0.015     121.95    0.369     45.53        1.940 0.82 0.55
            6    353      55.56 0.006     121.95    0.369     45.53        2.545 0.82 0.55
            6    354     742.10 0.037      91.46    0.369     45.53        1.352 0.82 0.55
            6    355     126.98 0.015     121.95    0.369     45.53        1.949 0.82 0.55
            6    356    6285.37 0.144      24.39    0.369     45.53        1.130 0.82 0.55
            7    357      88.89 0.066      60.98    0.419     77.95        0.903 0.72 0.17
            7    358     443.73 0.015     121.95    0.419     77.95        2.177 0.72 0.17
            7    359     537.01 0.031      91.46    0.419     77.95        1.524 0.72 0.17
            7    360     329.16 0.006     121.95    0.419     77.95        2.810 0.72 0.17
            7    361     850.18 0.033      91.46    0.419     77.95        1.556 0.72 0.17
            7    362     418.79 0.015     121.95    0.419     77.95        2.172 0.72 0.17
            7    363     190.40 0.007     121.95    0.419     77.95        2.657 0.72 0.17
            7    364     410.13 0.073      60.98    0.419     77.95        0.946 0.72 0.17
            7    365     572.29 0.031      91.46    0.419     77.95        1.530 0.72 0.17
            7    366     597.66 0.015     121.95    0.419     77.95        2.206 0.72 0.17
            7    367     436.53 0.006     121.95    0.419     77.95        2.832 0.72 0.17
            7    368     126.51 0.072      60.98    0.419     77.95        0.889 0.72 0.17
            7    369     111.64 0.006     121.95    0.419     77.95        2.763 0.72 0.17
            7    370     389.15 0.033      91.46    0.419     77.95        1.468 0.72 0.17
            7    371     212.76 0.074      60.98    0.419     77.95        0.901 0.72 0.17
            7    372     215.39 0.015     121.95    0.419     77.95        2.130 0.72 0.17
            7    373   30786.99 0.108      60.98    0.419     77.95        4.851 0.72 0.17
            7    374    7629.08 0.036      91.46    0.419     77.95        2.551 0.72 0.17
            7    375     702.67 0.006     121.95    0.419     77.95        2.883 0.72 0.17
            7    376    1645.36 0.015     121.95    0.419     77.95        2.392 0.72 0.17
            7    377    1631.94 0.036      91.46    0.419     77.95        1.657 0.72 0.17
            7    378   13321.53 0.138      24.39    0.419     77.95        2.373 0.72 0.17
            7    379     100.48 0.007     121.95    0.419     77.95        2.637 0.72 0.17
            7    380     324.67 0.015     121.95    0.419     77.95        2.153 0.72 0.17
            7    381    1782.66 0.036      91.46    0.419     77.95        1.682 0.72 0.17
            7    382     375.77 0.015     121.95    0.419     77.95        2.163 0.72 0.17
            7    383   15905.10 0.147      24.39    0.419     77.95        2.695 0.72 0.17
            7    384     127.67 0.007     121.95    0.419     77.95        2.643 0.72 0.17
            7    385     428.01 0.032      91.46    0.419     77.95        1.489 0.72 0.17
            7    386     539.70 0.118      60.98    0.419     77.95        0.857 0.72 0.17
            7    387   20054.27 0.000     121.95    0.419     77.95       12.148 0.72 0.17
            7    388     379.74 0.014     121.95    0.419     77.95        2.207 0.72 0.17
            7    389      66.23 0.014     121.95    0.419     77.95        2.139 0.72 0.17
            7    390     101.25 0.033      91.46    0.419     77.95        1.407 0.72 0.17
            7    391    3877.68 0.000     121.95    0.419     77.95       10.003 0.72 0.17
            7    392     107.08 0.118      60.98    0.419     77.95        0.767 0.72 0.17
            7    393     179.02 0.006     121.95    0.419     97.60        2.778 0.72 0.17
            7    394     162.11 0.081      60.98    0.419     97.60        0.867 0.72 0.17
            7    395     322.54 0.032      91.46    0.419     97.60        1.468 0.72 0.17
            7    396     238.15 0.015     121.95    0.419     97.60        2.134 0.72 0.17
            7    397    1182.68 0.088      60.98    0.419     97.60        1.042 0.72 0.17
            7    398     261.26 0.015     121.95    0.419     97.60        2.139 0.72 0.17
            7    399     128.79 0.006     121.95    0.419     97.60        2.767 0.72 0.17
            7    400     778.07 0.035      91.46    0.419     97.60        1.519 0.72 0.17
            7    401     580.09 0.079      60.98    0.419     77.95        0.959 0.72 0.17
            7    402     952.45 0.033      91.46    0.419     77.95        1.575 0.72 0.17
            7    403     504.24 0.015     121.95    0.419     77.95        2.188 0.72 0.17
            7    404     316.73 0.006     121.95    0.419     77.95        2.808 0.72 0.17
            7    405     437.82 0.007     121.95    0.419     77.95        2.709 0.72 0.17
            7    406    4750.35 0.085      60.98    0.419     77.95        1.612 0.72 0.17
            7    407    3329.46 0.035      91.46    0.419     77.95        1.940 0.72 0.17
            7    408    1006.96 0.015     121.95    0.419     77.95        2.282 0.72 0.17
            7    409     296.24 0.014     121.95    0.419     77.95        2.190 0.72 0.17
            7    410    1215.95 0.004     121.95    0.419     77.95        3.329 0.72 0.17
            7    411     179.09 0.031      91.46    0.419     77.95        1.451 0.72 0.17
            7    412      72.16 0.083      60.98    0.419     77.95        0.840 0.72 0.17
            7    413     296.81 0.093      60.98    0.419     77.95        0.863 0.72 0.17
            7    414     135.66 0.006     121.95    0.419     77.95        2.769 0.72 0.17
            7    415     274.52 0.033      91.46    0.419     77.95        1.445 0.72 0.17
            7    416     173.20 0.015     121.95    0.419     77.95        2.120 0.72 0.17
            7    417     106.92 0.003     121.95    0.419     77.95        3.394 0.72 0.17
            7    418      37.13 0.015     121.95    0.419     77.95        2.088 0.72 0.17
            7    419     292.60 0.129      24.39    0.419     77.95        0.484 0.72 0.17
            7    420     121.78 0.035      91.46    0.419     77.95        1.387 0.72 0.17
            7    421     281.53 0.114      60.98    0.419     77.95        0.813 0.72 0.17
            7    422     176.29 0.034      91.46    0.419     77.95        1.411 0.72 0.17
            7    423      31.94 0.006     121.95    0.419     77.95        2.743 0.72 0.17
            7    424      71.33 0.015     121.95    0.419     77.95        2.097 0.72 0.17
            8    425      74.28 0.006     121.95    0.038     61.43        0.653 0.75 0.40
            8    426      65.24 0.015     121.95    0.038     61.43        0.497 0.75 0.40
            8    427    1103.51 0.211      15.24    0.038     61.43        0.125 0.75 0.40
            8    428     140.53 0.034      91.46    0.038     61.43        0.334 0.75 0.40
            8    429       1.01 0.006     121.95    0.038     61.43        0.648 0.75 0.40
            8    430     725.09 0.206      15.24    0.038     61.43        0.106 0.75 0.40
            8    431       3.63 0.017     121.95    0.038     61.43        0.474 0.75 0.40
            8    432      27.23 0.037      91.46    0.038     61.43        0.318 0.75 0.40
            8    433     128.23 0.034      91.46    0.038     61.43        0.333 0.75 0.40
            8    434    1674.52 0.206      15.24    0.038     61.43        0.152 0.75 0.40
            8    435      21.84 0.007     121.95    0.038     61.43        0.620 0.75 0.40
            8    436      45.79 0.015     121.95    0.038     61.43        0.496 0.75 0.40
            8    437     137.29 0.015     121.95    0.038     61.43        0.502 0.75 0.40
            8    438      53.51 0.006     121.95    0.038     61.43        0.652 0.75 0.40
            8    439     598.48 0.036      91.46    0.038     61.43        0.354 0.75 0.40
            8    440   41330.81 0.319       9.15    0.038     61.43        1.485 0.75 0.40
            8    441      36.72 0.015     121.95    0.038     61.43        0.495 0.75 0.40
            8    442     172.67 0.037      91.46    0.038     61.43        0.328 0.75 0.40
            8    443      24.28 0.005     121.95    0.038     61.43        0.686 0.75 0.40
            8    444   29371.62 0.402       9.15    0.038     61.43        1.109 0.75 0.40
            8    445      16.64 0.005     121.95    0.038     61.43        0.685 0.75 0.40
            8    446      30.87 0.016     121.95    0.038     61.43        0.485 0.75 0.40
            8    447   24876.61 0.360       9.15    0.038     61.43        0.966 0.75 0.40
            8    448     205.79 0.037      91.46    0.038     61.43        0.330 0.75 0.40
            8    449      39.20 0.014     121.95    0.038     61.43        0.505 0.75 0.40
            8    450      56.52 0.032      91.46    0.038     61.43        0.334 0.75 0.40
            8    451     179.54 0.002     121.95    0.038     61.43        0.913 0.75 0.40
            8    452     153.16 0.261       9.15    0.038     61.43        0.055 0.75 0.40
            8    453     118.19 0.212      15.24    0.038     61.43        0.072 0.75 0.40
            8    454    1794.84 0.001     121.95    0.038     61.43        1.201 0.75 0.40
            8    455     103.30 0.014     121.95    0.038     61.43        0.510 0.75 0.40
            8    456     109.36 0.031      91.46    0.038     61.43        0.341 0.75 0.40
            8    457       7.27 0.015     121.95    0.038     97.27        0.493 0.75 0.40
            8    458       2.18 0.008     121.95    0.038     97.27        0.594 0.75 0.40
            8    459    1556.67 0.248      15.24    0.038     97.27        0.143 0.75 0.40
            8    460      46.00 0.037      91.46    0.038     97.27        0.319 0.75 0.40
            8    461      41.81 0.006     121.95    0.038     97.27        0.651 0.75 0.40
            8    462     103.08 0.015     121.95    0.038     97.27        0.499 0.75 0.40
            8    463     300.50 0.034      91.46    0.038     97.27        0.343 0.75 0.40
            8    464    4418.77 0.249      15.24    0.038     97.27        0.265 0.75 0.40
            8    465      23.63 0.015     121.95    0.038     97.27        0.494 0.75 0.40
            8    466    1789.00 0.258       9.15    0.038     97.27        0.137 0.75 0.40
            8    467       8.18 0.005     121.95    0.038     97.27        0.685 0.75 0.40
            8    468     119.26 0.036      91.46    0.038     97.27        0.327 0.75 0.40
            8    469      20.70 0.015     121.95    0.038     61.43        0.494 0.75 0.40
            8    470      73.45 0.036      91.46    0.038     61.43        0.324 0.75 0.40
            8    471       9.73 0.007     121.95    0.038     61.43        0.619 0.75 0.40
            8    472    1334.60 0.225      15.24    0.038     61.43        0.134 0.75 0.40
            8    473     869.91 0.160      18.29    0.038     61.43        0.127 0.75 0.40
            8    474      87.05 0.007     121.95    0.038     61.43        0.625 0.75 0.40
            8    475     335.99 0.033      91.46    0.038     61.43        0.348 0.75 0.40
            8    476     173.48 0.015     121.95    0.038     61.43        0.504 0.75 0.40
            8    477    2413.52 0.177      18.29    0.038     61.43        0.195 0.75 0.40
            8    478     203.54 0.037      91.46    0.038     61.43        0.329 0.75 0.40
            8    479      25.94 0.015     121.95    0.038     61.43        0.494 0.75 0.40
            8    480      11.72 0.005     121.95    0.038     61.43        0.685 0.75 0.40
            8    481      21.58 0.006     121.95    0.038     61.43        0.649 0.75 0.40
            8    482    2196.02 0.164      18.29    0.038     61.43        0.188 0.75 0.40
            8    483     312.29 0.036      91.46    0.038     61.43        0.338 0.75 0.40
            8    484      63.11 0.016     121.95    0.038     61.43        0.487 0.75 0.40
            8    485       5.49 0.004     121.95    0.038     61.43        0.732 0.75 0.40
            8    486       6.85 0.016     121.95    0.038     61.43        0.483 0.75 0.40
            8    487    1486.75 0.243      15.24    0.038     61.43        0.140 0.75 0.40
            8    488      42.40 0.037      91.46    0.038     61.43        0.319 0.75 0.40
            9    489      61.28 0.016     121.95    0.038     61.43        0.489 0.75 0.40
            9    490    2238.40 0.127      24.39    0.038     61.43        0.253 0.75 0.40
            9    491     369.78 0.036      91.46    0.038     61.43        0.350 0.75 0.40
            9    492      21.50 0.007     121.95    0.038     61.43        0.621 0.75 0.40
            9    493      36.36 0.006     121.95    0.038     61.43        0.652 0.75 0.40
            9    494      88.54 0.016     121.95    0.038     61.43        0.492 0.75 0.40
            9    495     550.88 0.037      91.46    0.038     61.43        0.361 0.75 0.40
            9    496    9931.84 0.209      15.24    0.038     61.43        0.633 0.75 0.40
            9    497     150.28 0.037      91.46    0.038     61.43        0.330 0.75 0.40
            9    498      18.24 0.016     121.95    0.038     61.43        0.485 0.75 0.40
            9    499   28071.71 0.409       9.15    0.038     61.43        1.451 0.75 0.40
            9    500       6.63 0.006     121.95    0.038     61.43        0.648 0.75 0.40
            9    501   28971.64 0.329       9.15    0.038     61.43        1.493 0.75 0.40
            9    502     338.72 0.037      91.46    0.038     61.43        0.345 0.75 0.40
            9    503      56.26 0.015     121.95    0.038     61.43        0.498 0.75 0.40
            9    504      20.54 0.006     121.95    0.038     61.43        0.650 0.75 0.40
            9    505    8252.63 0.133      24.39    0.038     97.27        0.581 0.75 0.40
            9    506     121.15 0.006     121.95    0.038     97.27        0.659 0.75 0.40
            9    507     288.29 0.016     121.95    0.038     97.27        0.508 0.75 0.40
            9    508    1642.56 0.036      91.46    0.038     97.27        0.436 0.75 0.40
            9    509      17.22 0.016     121.95    0.038     97.27        0.485 0.75 0.40
            9    510      10.30 0.005     121.95    0.038     97.27        0.685 0.75 0.40
            9    511     109.32 0.036      91.46    0.038     97.27        0.329 0.75 0.40
            9    512    1685.15 0.244      15.24    0.038     97.27        0.182 0.75 0.40
            9    513    3676.21 0.114      60.98    0.038     65.45        0.415 0.75 0.40
            9    514    1208.58 0.036      91.46    0.038     65.45        0.408 0.75 0.40
            9    515      95.12 0.006     121.95    0.038     65.45        0.657 0.75 0.40
            9    516     225.50 0.016     121.95    0.038     65.45        0.503 0.75 0.40
            9    517     132.17 0.006     121.95    0.038     61.43        0.660 0.75 0.40
            9    518   13446.22 0.131      24.39    0.038     61.43        0.839 0.75 0.40
            9    519    2119.48 0.037      91.46    0.038     61.43        0.463 0.75 0.40
            9    520     343.94 0.015     121.95    0.038     61.43        0.522 0.75 0.40
           10    521    3000.96 0.134      24.39    0.251     75.36        0.856 0.10 0.05
           10    522     663.93 0.037      91.46    0.251     75.36        1.128 0.10 0.05
           10    523     111.71 0.015     121.95    0.251     75.36        1.558 0.10 0.05
           10    524      46.42 0.006     121.95    0.251     75.36        2.024 0.10 0.05
           10    525     260.92 0.015     121.95    0.251     75.36        1.592 0.10 0.05
           10    526    7340.17 0.151      24.39    0.251     75.36        1.503 0.10 0.05
           10    527    1072.72 0.036      91.46    0.251     75.36        1.213 0.10 0.05
           10    528     125.73 0.006     121.95    0.251     75.36        2.044 0.10 0.05
           10    529    7345.53 0.195      18.29    0.251     75.36        1.440 0.10 0.05
           10    530     394.17 0.037      91.46    0.251     75.36        1.074 0.10 0.05
           10    531      67.89 0.015     121.95    0.251     75.36        1.547 0.10 0.05
           10    532      41.02 0.004     121.95    0.251     75.36        2.283 0.10 0.05
           10    533    2131.81 0.140      24.39    0.251     75.36        0.708 0.10 0.05
           10    534     580.37 0.035      91.46    0.251     75.36        1.128 0.10 0.05
           10    535      98.27 0.006     121.95    0.251     75.36        2.038 0.10 0.05
           10    536     171.34 0.015     121.95    0.251     75.36        1.572 0.10 0.05
           10    537    4921.78 0.179      18.29    0.251     75.36        1.087 0.10 0.05
           10    538     422.56 0.036      91.46    0.251     75.36        1.088 0.10 0.05
           10    539      45.27 0.006     121.95    0.251     75.36        2.024 0.10 0.05
           10    540      90.83 0.015     121.95    0.251     75.36        1.553 0.10 0.05
           10    541    2863.02 0.272       9.15    0.251     75.36        0.667 0.10 0.05
           10    542     115.88 0.036      91.46    0.251     75.36        1.020 0.10 0.05
           10    543      18.69 0.016     121.95    0.251     75.36        1.504 0.10 0.05
           10    544      11.84 0.005     121.95    0.251     75.36        2.127 0.10 0.05
           10    545       3.59 0.003     121.95    0.251     75.36        2.476 0.10 0.05
           10    546       2.55 0.015     121.95    0.251     75.36        1.528 0.10 0.05
           10    547      25.94 0.037      91.46    0.251     75.36        0.989 0.10 0.05
           10    548    1022.69 0.273       9.15    0.251     75.36        0.351 0.10 0.05
           10    549    1269.68 0.209      15.24    0.251     75.36        0.460 0.10 0.05
           10    550      94.29 0.036      91.46    0.251     75.36        1.015 0.10 0.05
           10    551      10.09 0.006     121.95    0.251     75.36        2.014 0.10 0.05
           10    552      18.64 0.015     121.95    0.251     75.36        1.533 0.10 0.05
           10    553    1244.24 0.195      18.29    0.251     75.36        0.483 0.10 0.05
           10    554     180.80 0.036      91.46    0.251     75.36        1.035 0.10 0.05
           10    555      14.81 0.006     121.95    0.251     75.36        2.015 0.10 0.05
           10    556      45.10 0.015     121.95    0.251     75.36        1.541 0.10 0.05
           10    557    1338.41 0.193      18.29    0.251     75.36        0.501 0.10 0.05
           10    558      12.90 0.007     121.95    0.251     75.36        1.924 0.10 0.05
           10    559      37.56 0.015     121.95    0.251     75.36        1.539 0.10 0.05
           10    560     182.72 0.036      91.46    0.251     75.36        1.036 0.10 0.05
           10    561    1204.52 0.318       9.15    0.251     75.36        0.379 0.10 0.05
           10    562       3.19 0.005     121.95    0.251     75.36        2.124 0.10 0.05
           10    563       4.99 0.015     121.95    0.251     75.36        1.529 0.10 0.05
           10    564      22.23 0.037      91.46    0.251     75.36        0.987 0.10 0.05
           10    565   43550.40 0.294       9.15    0.251     75.36        5.891 0.10 0.05
           10    566     710.01 0.037      91.46    0.251     75.36        1.137 0.10 0.05
           10    567     124.26 0.015     121.95    0.251     75.36        1.561 0.10 0.05
           10    568     113.03 0.003     121.95    0.251     75.36        2.506 0.10 0.05
           10    569   22196.01 0.242      15.24    0.251     75.36        3.384 0.10 0.05
           10    570     806.30 0.036      91.46    0.251     75.36        1.164 0.10 0.05
           10    571      65.46 0.007     121.95    0.251     75.36        1.938 0.10 0.05
           10    572     153.68 0.016     121.95    0.251     75.36        1.539 0.10 0.05
           10    573     160.59 0.016     121.95    0.251     75.36        1.540 0.10 0.05
           10    574      81.74 0.005     121.95    0.251     75.36        2.146 0.10 0.05
           10    575     945.00 0.037      91.46    0.251     75.36        1.182 0.10 0.05
           10    576   79513.88 0.362       9.15    0.251     75.36        9.877 0.10 0.05
           10    577      42.32 0.004     121.95    0.251     97.55        2.283 0.10 0.05
           10    578      58.92 0.016     121.95    0.251     97.55        1.515 0.10 0.05
           10    579     303.76 0.037      91.46    0.251     97.55        1.055 0.10 0.05
           10    580    6468.39 0.223      15.24    0.251     97.55        1.281 0.10 0.05
           10    581     125.12 0.015     121.95    0.251     97.55        1.561 0.10 0.05
           10    582     487.95 0.035      91.46    0.251     97.55        1.109 0.10 0.05
           10    583    4200.73 0.209      15.24    0.251     97.55        0.943 0.10 0.05
           10    584      67.91 0.005     121.95    0.251     97.55        2.143 0.10 0.05
           10    585     198.93 0.036      91.46    0.251     97.55        1.040 0.10 0.05
           10    586    4270.98 0.296       9.15    0.251     97.55        0.887 0.10 0.05
           10    587      47.60 0.015     121.95    0.251     97.55        1.541 0.10 0.05
           10    588      16.14 0.006     121.95    0.251     97.55        2.015 0.10 0.05
           10    589   15365.28 0.194      18.29    0.251     75.36        2.541 0.10 0.05
           10    590     778.93 0.037      91.46    0.251     75.36        1.150 0.10 0.05
           10    591     126.08 0.015     121.95    0.251     75.36        1.561 0.10 0.05
           10    592      84.96 0.004     121.95    0.251     75.36        2.294 0.10 0.05
           10    593    4583.46 0.144      24.39    0.251     75.36        1.098 0.10 0.05
           10    594    1179.93 0.035      91.46    0.251     75.36        1.241 0.10 0.05
           10    595     361.36 0.015     121.95    0.251     75.36        1.614 0.10 0.05
           10    596     212.98 0.006     121.95    0.251     75.36        2.065 0.10 0.05
           10    597   10627.30 0.179      18.29    0.251     75.36        1.909 0.10 0.05
           10    598     946.00 0.036      91.46    0.251     75.36        1.190 0.10 0.05
           10    599     211.80 0.015     121.95    0.251     75.36        1.581 0.10 0.05
           10    600      99.77 0.006     121.95    0.251     75.36        2.038 0.10 0.05
           10    601     271.75 0.036      91.46    0.251     75.36        1.056 0.10 0.05
           10    602    7024.70 0.281       9.15    0.251     75.36        1.301 0.10 0.05
           10    603      24.98 0.006     121.95    0.251     75.36        2.018 0.10 0.05
           10    604      48.61 0.015     121.95    0.251     75.36        1.542 0.10 0.05
           11    605      33.14 0.016     121.95    0.247     77.92        1.490 0.22 0.29
           11    606     170.95 0.037      91.46    0.247     77.92        0.999 0.22 0.29
           11    607      13.26 0.006     121.95    0.247     77.92        1.994 0.22 0.29
           11    608     878.45 0.115      60.98    0.247     77.92        0.661 0.22 0.29
           11    609    1413.09 0.116      60.98    0.247     77.92        0.721 0.22 0.29
           11    610     375.38 0.036      91.46    0.247     77.92        1.035 0.22 0.29
           11    611      66.98 0.015     121.95    0.247     77.92        1.525 0.22 0.29
           11    612      28.78 0.006     121.95    0.247     77.92        1.996 0.22 0.29
           11    613      60.18 0.005     121.95    0.247     77.92        2.114 0.22 0.29
           11    614      82.51 0.015     121.95    0.247     77.92        1.527 0.22 0.29
           11    615     257.98 0.034      91.46    0.247     77.92        1.036 0.22 0.29
           11    616     563.42 0.129      24.39    0.247     77.92        0.383 0.22 0.29
           11    617      62.75 0.005     121.95    0.247     77.92        2.114 0.22 0.29
           11    618     531.80 0.036      91.46    0.247     77.92        1.056 0.22 0.29
           11    619    3815.10 0.130      24.39    0.247     77.92        0.733 0.22 0.29
           11    620      99.02 0.015     121.95    0.247     77.92        1.530 0.22 0.29
           11    621     979.92 0.036      91.46    0.247     77.92        1.110 0.22 0.29
           11    622     183.86 0.015     121.95    0.247     77.92        1.543 0.22 0.29
           11    623      80.60 0.006     121.95    0.247     77.92        2.005 0.22 0.29
           11    624    4819.79 0.129      24.39    0.247     77.92        0.832 0.22 0.29
           11    625     203.25 0.015     121.95    0.247     77.92        1.545 0.22 0.29
           11    626     150.65 0.006     121.95    0.247     77.92        2.016 0.22 0.29
           11    627    2616.78 0.142      24.39    0.247     77.92        0.604 0.22 0.29
           11    628     707.39 0.035      91.46    0.247     77.92        1.086 0.22 0.29
           11    629   13396.56 0.219      15.24    0.247     77.92        1.491 0.22 0.29
           11    630     204.38 0.015     121.95    0.247     77.92        1.545 0.22 0.29
           11    631     115.66 0.005     121.95    0.247     77.92        2.123 0.22 0.29
           11    632     946.80 0.036      91.46    0.247     77.92        1.106 0.22 0.29
           11    633      85.78 0.015     121.95    0.247     77.92        1.528 0.22 0.29
           11    634     512.05 0.037      91.46    0.247     77.92        1.045 0.22 0.29
           11    635   43382.40 0.347       9.15    0.247     77.92        3.751 0.22 0.29
           11    636      50.36 0.005     121.95    0.247     77.92        2.112 0.22 0.29
           11    637   21264.65 0.300       9.15    0.247     77.92        2.074 0.22 0.29
           11    638     786.70 0.036      91.46    0.247     77.92        1.087 0.22 0.29
           11    639     185.01 0.015     121.95    0.247     77.92        1.543 0.22 0.29
           11    640     127.08 0.005     121.95    0.247     77.92        2.124 0.22 0.29
           11    641    9631.41 0.001     121.95    0.247     77.92        4.379 0.22 0.29
           11    642     668.27 0.167      18.29    0.247     77.92        0.329 0.22 0.29
           11    643     494.36 0.014     121.95    0.247     77.92        1.616 0.22 0.29
           11    644     612.44 0.032      91.46    0.247     77.92        1.101 0.22 0.29
           11    645     123.73 0.005     121.95    0.247     97.60        2.124 0.22 0.29
           11    646     202.39 0.015     121.95    0.247     97.60        1.545 0.22 0.29
           11    647    1034.35 0.036      91.46    0.247     97.60        1.116 0.22 0.29
           11    648    4926.25 0.124      24.39    0.247     97.60        0.846 0.22 0.29
           11    649     805.91 0.036      91.46    0.247     97.60        1.089 0.22 0.29
           11    650     140.60 0.016     121.95    0.247     97.60        1.507 0.22 0.29
           11    651      78.00 0.005     121.95    0.247     97.60        2.117 0.22 0.29
           11    652    3865.35 0.133      24.39    0.247     97.60        0.736 0.22 0.29
           11    653      44.09 0.004     121.95    0.247     97.60        2.257 0.22 0.29
           11    654    2594.22 0.299       9.15    0.247     97.60        0.439 0.22 0.29
           11    655      58.34 0.015     121.95    0.247     97.60        1.523 0.22 0.29
           11    656     215.33 0.034      91.46    0.247     97.60        1.030 0.22 0.29
           11    657     147.80 0.015     121.95    0.247     97.60        1.537 0.22 0.29
           11    658      91.28 0.006     121.95    0.247     97.60        2.007 0.22 0.29
           11    659     468.67 0.035      91.46    0.247     97.60        1.056 0.22 0.29
           11    660    2004.28 0.182      18.29    0.247     97.60        0.475 0.22 0.29
           11    661     564.06 0.036      91.46    0.247     80.13        1.060 0.22 0.29
           11    662      49.98 0.006     121.95    0.247     80.13        2.000 0.22 0.29
           11    663     120.23 0.015     121.95    0.247     80.13        1.533 0.22 0.29
           11    664    1945.53 0.112      60.98    0.247     80.13        0.786 0.22 0.29
           11    665     451.03 0.035      91.46    0.247     80.13        1.054 0.22 0.29
           11    666     662.82 0.086      60.98    0.247     80.13        0.684 0.22 0.29
           11    667      48.27 0.006     121.95    0.247     80.13        2.000 0.22 0.29
           11    668      95.50 0.016     121.95    0.247     80.13        1.500 0.22 0.29
           11    669      17.01 0.005     121.95    0.247     80.13        2.106 0.22 0.29
           11    670     890.24 0.118      60.98    0.247     80.13        0.658 0.22 0.29
           11    671     209.72 0.037      91.46    0.247     80.13        1.005 0.22 0.29
           11    672      32.63 0.016     121.95    0.247     80.13        1.490 0.22 0.29
           11    673     146.15 0.005     121.95    0.247     77.92        2.127 0.22 0.29
           11    674     257.88 0.016     121.95    0.247     77.92        1.524 0.22 0.29
           11    675    1487.37 0.036      91.46    0.247     77.92        1.168 0.22 0.29
           11    676   10386.85 0.129      24.39    0.247     77.92        1.340 0.22 0.29
           11    677     239.32 0.006     121.95    0.247     77.92        2.029 0.22 0.29
           11    678    2497.63 0.036      91.46    0.247     77.92        1.277 0.22 0.29
           11    679   12438.51 0.128      24.39    0.247     77.92        1.518 0.22 0.29
           11    680     483.09 0.015     121.95    0.247     77.92        1.583 0.22 0.29
           11    681    6482.06 0.141      24.39    0.247     77.92        0.981 0.22 0.29
           11    682     331.92 0.006     121.95    0.247     77.92        2.042 0.22 0.29
           11    683    1712.59 0.035      91.46    0.247     77.92        1.201 0.22 0.29
           11    684     524.67 0.015     121.95    0.247     77.92        1.588 0.22 0.29
           12    685   11882.34 0.170      18.29    0.376     86.48        1.694 0.53 0.22
           12    686     185.43 0.006     121.95    0.376     86.48        2.598 0.53 0.22
           12    687     332.91 0.015     121.95    0.376     86.48        2.007 0.53 0.22
           12    688    1311.16 0.036      91.46    0.376     86.48        1.462 0.53 0.22
           12    689    2297.38 0.164      18.29    0.376     86.48        0.635 0.53 0.22
           12    690     353.76 0.036      91.46    0.376     86.48        1.323 0.53 0.22
           12    691      96.32 0.015     121.95    0.376     86.48        1.966 0.53 0.22
           12    692      98.71 0.006     121.95    0.376     86.48        2.582 0.53 0.22
           12    693      42.36 0.006     121.95    0.376     86.48        2.571 0.53 0.22
           12    694     102.88 0.015     121.95    0.376     86.48        1.968 0.53 0.22
           12    695    9161.11 0.182      18.29    0.376     86.48        1.404 0.53 0.22
           12    696     578.35 0.037      91.46    0.376     86.48        1.348 0.53 0.22
           12    697     408.84 0.036      91.46    0.376     86.48        1.332 0.53 0.22
           12    698    3789.03 0.180      18.29    0.376     86.48        0.808 0.53 0.22
           12    699      74.86 0.015     121.95    0.376     86.48        1.962 0.53 0.22
           12    700      44.20 0.006     121.95    0.376     86.48        2.572 0.53 0.22
           12    701      96.02 0.015     121.95    0.376     86.48        1.966 0.53 0.22
           12    702    6110.62 0.209      15.24    0.376     86.48        1.032 0.53 0.22
           12    703      61.13 0.006     121.95    0.376     86.48        2.575 0.53 0.22
           12    704     394.50 0.036      91.46    0.376     86.48        1.330 0.53 0.22
           12    705     163.05 0.004     121.95    0.376     86.48        2.925 0.53 0.22
           12    706    1219.26 0.037      91.46    0.376     86.48        1.439 0.53 0.22
           12    707     210.50 0.015     121.95    0.376     86.48        1.987 0.53 0.22
           12    708   50647.98 0.251       9.15    0.376     86.48        5.130 0.53 0.22
           12    709     402.23 0.015     121.95    0.376     86.48        2.018 0.53 0.22
           12    710    1897.14 0.036      91.46    0.376     86.48        1.539 0.53 0.22
           12    711   91303.48 0.315       9.15    0.376     86.48        8.461 0.53 0.22
           12    712     234.91 0.006     121.95    0.376     86.48        2.606 0.53 0.22
           12    713      70.64 0.006     121.95    0.376     86.48        2.577 0.53 0.22
           12    714     125.67 0.015     121.95    0.376     86.48        1.972 0.53 0.22
           12    715     638.26 0.036      91.46    0.376     86.48        1.367 0.53 0.22
           12    716   51294.43 0.349       9.15    0.376     86.48        5.169 0.53 0.22
           12    717     170.78 0.006     121.95    0.376     86.48        2.595 0.53 0.22
           12    718  134002.53 0.348       9.15    0.376     86.48       11.766 0.53 0.22
           12    719    1772.08 0.037      91.46    0.376     86.48        1.512 0.53 0.22
           12    720     314.10 0.015     121.95    0.376     86.48        2.004 0.53 0.22
           12    721     851.96 0.232      15.24    0.376     86.48        0.385 0.53 0.22
           12    722     189.29 0.033      91.46    0.376     86.48        1.330 0.53 0.22
           12    723     881.72 0.001     121.95    0.376     86.48        4.527 0.53 0.22
           12    724      91.54 0.015     121.95    0.376     86.48        1.965 0.53 0.22
           12    725    6642.24 0.001     121.95    0.376     86.48        5.222 0.53 0.22
           12    726     573.37 0.033      91.46    0.376     86.48        1.391 0.53 0.22
           12    727    1803.56 0.193      18.29    0.376     86.48        0.557 0.53 0.22
           12    728     403.45 0.014     121.95    0.376     86.48        2.059 0.53 0.22
           12    729      76.85 0.005     121.95    0.376     97.77        2.722 0.53 0.22
           12    730     122.62 0.016     121.95    0.376     97.77        1.934 0.53 0.22
           12    731    9634.03 0.198      18.29    0.376     97.77        1.447 0.53 0.22
           12    732     638.11 0.036      91.46    0.376     97.77        1.367 0.53 0.22
           12    733   12584.12 0.213      15.24    0.376     97.77        1.717 0.53 0.22
           12    734     134.77 0.006     121.95    0.376     97.77        2.589 0.53 0.22
           12    735    1222.61 0.036      91.46    0.376     97.77        1.450 0.53 0.22
           12    736     272.09 0.015     121.95    0.376     97.77        1.997 0.53 0.22
           12    737      87.12 0.015     121.95    0.376     97.77        1.965 0.53 0.22
           12    738      42.01 0.006     121.95    0.376     97.77        2.571 0.53 0.22
           12    739    9408.53 0.321       9.15    0.376     97.77        1.300 0.53 0.22
           12    740     402.94 0.036      91.46    0.376     97.77        1.331 0.53 0.22
           12    741     212.23 0.015     121.95    0.376     86.48        1.987 0.53 0.22
           12    742    1256.48 0.036      91.46    0.376     86.48        1.454 0.53 0.22
           12    743     104.72 0.006     121.95    0.376     86.48        2.583 0.53 0.22
           12    744   19386.25 0.182      18.29    0.376     86.48        2.433 0.53 0.22
           12    745     356.61 0.006     121.95    0.376     86.48        2.626 0.53 0.22
           12    746    3121.63 0.036      91.46    0.376     86.48        1.692 0.53 0.22
           12    747   49436.14 0.205      15.24    0.376     86.48        5.105 0.53 0.22
           12    748     679.81 0.015     121.95    0.376     86.48        2.060 0.53 0.22
           12    749     199.31 0.015     121.95    0.376     86.48        1.985 0.53 0.22
           12    750     124.60 0.006     121.95    0.376     86.48        2.587 0.53 0.22
           12    751     869.61 0.036      91.46    0.376     86.48        1.400 0.53 0.22
           12    752   14591.36 0.215      15.24    0.376     86.48        1.919 0.53 0.22
           13    753    1612.36 0.036      91.46    0.451     43.84        1.561 0.22 0.35
           13    754    5718.74 0.107      60.98    0.451     43.84        1.268 0.22 0.35
           13    755     364.63 0.015     121.95    0.451     43.84        2.213 0.22 0.35
           13    756     271.77 0.006     121.95    0.451     43.84        2.890 0.22 0.35
           13    757     558.32 0.006     121.95    0.451     43.84        2.919 0.22 0.35
           13    758     669.73 0.015     121.95    0.451     43.84        2.243 0.22 0.35
           13    759    3436.83 0.114      60.98    0.451     43.84        1.083 0.22 0.35
           13    760    1725.41 0.034      91.46    0.451     43.84        1.595 0.22 0.35
           13    761     651.72 0.015     121.95    0.451     43.84        2.241 0.22 0.35
           13    762     332.45 0.006     121.95    0.451     43.84        2.896 0.22 0.35
           13    763   14612.70 0.116      60.98    0.451     43.84        1.853 0.22 0.35
           13    764    3222.27 0.036      91.46    0.451     43.84        1.691 0.22 0.35
           13    765    9792.06 0.133      24.39    0.451     43.84        1.189 0.22 0.35
           13    766    2716.87 0.035      91.46    0.451     43.84        1.663 0.22 0.35
           13    767     897.92 0.015     121.95    0.451     43.84        2.264 0.22 0.35
           13    768     692.47 0.006     121.95    0.451     43.84        2.931 0.22 0.35
           13    769     280.48 0.015     121.95    0.451     43.84        2.204 0.22 0.35
           13    770     111.13 0.006     121.95    0.451     43.84        2.872 0.22 0.35
           13    771     962.70 0.035      91.46    0.451     43.84        1.516 0.22 0.35
           13    772  102206.57 0.379       9.15    0.451     43.84        6.086 0.22 0.35
           13    773   84977.29 0.384       9.15    0.451     43.84        5.203 0.22 0.35
           13    774      52.33 0.006     121.95    0.451     43.84        2.864 0.22 0.35
           13    775     669.91 0.037      91.46    0.451     43.84        1.465 0.22 0.35
           13    776     110.27 0.015     121.95    0.451     43.84        2.185 0.22 0.35
           13    777   89653.74 0.455       9.15    0.451     43.84        5.436 0.22 0.35
           13    778      51.05 0.005     121.95    0.451     43.84        3.025 0.22 0.35
           13    779     376.03 0.037      91.46    0.451     43.84        1.437 0.22 0.35
           13    780      66.37 0.015     121.95    0.451     43.84        2.180 0.22 0.35
           13    781    4061.57 0.036      91.46    0.451     96.92        1.756 0.22 0.35
           13    782     822.52 0.015     121.95    0.451     96.92        2.257 0.22 0.35
           13    783     344.39 0.006     121.95    0.451     96.92        2.897 0.22 0.35
           13    784   17128.27 0.119      60.98    0.451     96.92        2.008 0.22 0.35
           13    785     772.34 0.015     121.95    0.451     96.92        2.252 0.22 0.35
           13    786    2785.11 0.035      91.46    0.451     96.92        1.669 0.22 0.35
           13    787    8921.18 0.150      24.39    0.451     96.92        1.114 0.22 0.35
           13    788     473.99 0.006     121.95    0.451     96.92        2.910 0.22 0.35
           13    789     938.99 0.006     121.95    0.451     43.84        2.954 0.22 0.35
           13    790    1977.13 0.015     121.95    0.451     43.84        2.357 0.22 0.35
           13    791    9864.36 0.036      91.46    0.451     43.84        2.168 0.22 0.35
           13    792   44898.21 0.116      60.98    0.451     43.84        3.653 0.22 0.35
           13    793    2298.36 0.015     121.95    0.451     43.84        2.384 0.22 0.35
           13    794    7248.50 0.035      91.46    0.451     43.84        2.000 0.22 0.35
           13    795   26849.45 0.132      24.39    0.451     43.84        2.266 0.22 0.35
           13    796    1698.88 0.006     121.95    0.451     43.84        3.021 0.22 0.35
           14    797     143.90 0.069      60.98    0.419     77.95        0.881 0.72 0.17
           14    798     513.23 0.031      91.46    0.419     77.95        1.449 0.72 0.17
           14    799     395.63 0.015     121.95    0.419     77.95        2.111 0.72 0.17
           14    800     291.63 0.006     121.95    0.419     77.95        2.760 0.72 0.17
           14    801    1368.18 0.033      91.46    0.419     77.95        1.482 0.72 0.17
           14    802     622.12 0.015     121.95    0.419     77.95        2.128 0.72 0.17
           14    803     303.30 0.006     121.95    0.419     77.95        2.761 0.72 0.17
           14    804     691.70 0.073      60.98    0.419     77.95        0.909 0.72 0.17
           14    805     565.70 0.069      60.98    0.419     77.95        0.914 0.72 0.17
           14    806    1092.22 0.034      91.46    0.419     77.95        1.452 0.72 0.17
           14    807     332.25 0.015     121.95    0.419     77.95        2.106 0.72 0.17
           14    808     131.20 0.007     121.95    0.419     77.95        2.623 0.72 0.17
           14    809     228.25 0.015     121.95    0.419     77.95        2.098 0.72 0.17
           14    810     588.42 0.034      91.46    0.419     77.95        1.416 0.72 0.17
           14    811     301.09 0.068      60.98    0.419     77.95        0.898 0.72 0.17
           14    812     124.83 0.006     121.95    0.419     77.95        2.746 0.72 0.17
           14    813     331.60 0.007     121.95    0.419     77.95        2.640 0.72 0.17
           14    814     564.87 0.015     121.95    0.419     77.95        2.124 0.72 0.17
           14    815     625.50 0.071      60.98    0.419     77.95        0.911 0.72 0.17
           14    816    1299.15 0.033      91.46    0.419     77.95        1.478 0.72 0.17
           14    817     453.74 0.031      91.46    0.419     77.95        1.445 0.72 0.17
           14    818     107.65 0.071      60.98    0.419     77.95        0.870 0.72 0.17
           14    819     504.83 0.014     121.95    0.419     77.95        2.163 0.72 0.17
           14    820     937.61 0.005     121.95    0.419     77.95        2.961 0.72 0.17
           14    821     690.36 0.015     121.95    0.419     77.95        2.133 0.72 0.17
           14    822     598.88 0.070      60.98    0.419     77.95        0.913 0.72 0.17
[...]
           54   4124     780.93       479.794         0.531      0.000   0.151        1.000  0.079    0.000     0.000
           54   4125    3104.77       479.794         0.531      0.000   0.151        1.000  0.079    0.000     0.000
           54   4126     197.95       479.794         0.531      0.000   0.151        1.000  0.079    0.000     0.000
           54   4127     346.16       479.794         0.531      0.000   0.151        1.000  0.079    0.000     0.000
           54   4128   13586.79       479.794         0.531      0.000   0.151        1.000  0.079    0.000     0.000
           54   4129    1684.59       479.794         0.531      0.000   0.151        1.000  0.079    0.000     0.000
           54   4130     151.26       479.794         0.531      0.000   0.151        1.000  0.079    0.000     0.000
           54   4131    4234.45       479.794         0.531      0.000   0.151        1.000  0.079    0.000     0.000
           54   4132     366.80       479.794         0.531      0.000   0.151        1.000  0.079    0.000     0.000
           54   4133    1341.78       479.794         0.531      0.000   0.151        1.000  0.079    0.000     0.000
           54   4134     367.85       479.794         0.531      0.000   0.151        1.000  0.079    0.000     0.000
           54   4135     674.02       479.794         0.531      0.000   0.151        1.000  0.079    0.000     0.000
           54   4136    3152.92       479.794         0.531      0.000   0.151        1.000  0.079    0.000     0.000
           54   4137   23374.93       479.794         0.531      0.000   0.151        1.000  0.079    0.000     0.000
           54   4138    2319.14       479.794         0.531      0.000   0.151        1.000  0.079    0.000     0.000
           54   4139     804.73       479.794         0.531      0.000   0.151        1.000  0.079    0.000     0.000
           54   4140     348.63       479.794         0.531      0.000   0.151        1.000  0.079    0.000     0.000
           54   4141    4568.27       479.794         0.531      0.000   0.151        1.000  0.079    0.000     0.000
           54   4142     994.10       479.794         0.531      0.000   0.151        1.000  0.079    0.000     0.000
           54   4143    2014.38       479.794         0.531      0.000   0.151        1.000  0.079    0.000     0.000
           54   4144    4798.49       479.794         0.531      0.000   0.151        1.000  0.079    0.000     0.000
           54   4145    5336.49       479.794         0.531      0.000   0.151        1.000  0.079    0.000     0.000
           54   4146     420.16       479.794         0.531      0.000   0.151        1.000  0.079    0.000     0.000
           54   4147    6897.21       479.794         0.531      0.000   0.151        1.000  0.079    0.000     0.000
           54   4148     976.42       479.794         0.531      0.000   0.151        1.000  0.079    0.000     0.000
           54   4149    2971.98       479.794         0.531      0.000   0.151        1.000  0.079    0.000     0.000
           55   4150    1228.89        27.218         0.611      0.000   0.063        1.000  0.215    0.000     0.000
           55   4151     234.54        27.218         0.611      0.000   0.063        1.000  0.215    0.000     0.000
           55   4152     911.32        27.218         0.611      0.000   0.063        1.000  0.215    0.000     0.000
           55   4153     850.69        27.218         0.611      0.000   0.063        1.000  0.215    0.000     0.000
           55   4154     744.28        27.218         0.611      0.000   0.063        1.000  0.215    0.000     0.000
           55   4155     324.09        27.218         0.611      0.000   0.063        1.000  0.215    0.000     0.000
           55   4156     531.30        27.218         0.611      0.000   0.063        1.000  0.215    0.000     0.000
           55   4157     590.19        27.218         0.611      0.000   0.063        1.000  0.215    0.000     0.000
           55   4158     900.33        27.218         0.611      0.000   0.063        1.000  0.215    0.000     0.000
           55   4159    1779.77        27.218         0.611      0.000   0.063        1.000  0.215    0.000     0.000
           55   4160    4345.43        27.218         0.611      0.000   0.063        1.000  0.215    0.000     0.000
           55   4161    2102.60        27.218         0.611      0.000   0.063        1.000  0.215    0.000     0.000
           55   4162    2684.80        27.218         0.611      0.000   0.063        1.000  0.215    0.000     0.000
           55   4163    5326.58        27.218         0.611      0.000   0.063        1.000  0.215    0.000     0.000
           55   4164    2168.39        27.218         0.611      0.000   0.063        1.000  0.215    0.000     0.000
           55   4165     865.25        27.218         0.611      0.000   0.063        1.000  0.215    0.000     0.000
           55   4166     460.71        27.218         0.611      0.000   0.063        1.000  0.215    0.000     0.000
           55   4167     576.62        27.218         0.611      0.000   0.063        1.000  0.215    0.000     0.000
           55   4168    2065.97        27.218         0.611      0.000   0.063        1.000  0.215    0.000     0.000
           55   4169     748.60        27.218         0.611      0.000   0.063        1.000  0.215    0.000     0.000
           55   4170    1088.52        27.218         0.611      0.000   0.063        1.000  0.215    0.000     0.000
           55   4171     346.21        27.218         0.611      0.000   0.063        1.000  0.215    0.000     0.000
           55   4172     344.15        27.218         0.611      0.000   0.063        1.000  0.215    0.000     0.000
           55   4173    4254.36        27.218         0.611      0.000   0.063        1.000  0.215    0.000     0.000
           55   4174     733.29        27.218         0.611      0.000   0.063        1.000  0.215    0.000     0.000
           55   4175    5542.33        27.218         0.611      0.000   0.063        1.000  0.215    0.000     0.000
           55   4176    7009.42        27.218         0.611      0.000   0.063        1.000  0.215    0.000     0.000
           55   4177    1738.63        27.218         0.611      0.000   0.063        1.000  0.215    0.000     0.000
           55   4178    1609.29        27.218         0.611      0.000   0.063        1.000  0.215    0.000     0.000
           55   4179    1508.79        27.218         0.611      0.000   0.063        1.000  0.215    0.000     0.000
           55   4180    6488.83        27.218         0.611      0.000   0.063        1.000  0.215    0.000     0.000
           55   4181   58704.06        27.218         0.611      0.000   0.063        1.000  0.215    0.000     0.000
           55   4182   52152.81        27.218         0.611      0.000   0.063        1.000  0.215    0.000     0.000
           55   4183    7410.82        27.218         0.611      0.000   0.063        1.000  0.215    0.000     0.000
           55   4184   26596.80        27.218         0.611      0.000   0.063        1.000  0.215    0.000     0.000
           55   4185    3141.14        27.218         0.611      0.000   0.063        1.000  0.215    0.000     0.000
           55   4186   46986.28        27.218         0.611      0.000   0.063        1.000  0.215    0.000     0.000
           55   4187     637.10        27.218         0.611      0.000   0.063        1.000  0.215    0.000     0.000
           55   4188     444.32        27.218         0.611      0.000   0.063        1.000  0.215    0.000     0.000
           55   4189    1530.02        27.218         0.611      0.000   0.063        1.000  0.215    0.000     0.000
           55   4190     674.49        27.218         0.611      0.000   0.063        1.000  0.215    0.000     0.000
           55   4191     481.14        27.218         0.611      0.000   0.063        1.000  0.215    0.000     0.000
           55   4192   27503.95        27.218         0.611      0.000   0.063        1.000  0.215    0.000     0.000
           55   4193     249.14        27.218         0.611      0.000   0.063        1.000  0.215    0.000     0.000
           55   4194     872.44        27.218         0.611      0.000   0.063        1.000  0.215    0.000     0.000
           55   4195    1142.99        27.218         0.611      0.000   0.063        1.000  0.215    0.000     0.000
           55   4196     552.15        27.218         0.611      0.000   0.063        1.000  0.215    0.000     0.000
           55   4197     533.27        27.218         0.611      0.000   0.063        1.000  0.215    0.000     0.000
           55   4198     272.76        27.218         0.611      0.000   0.063        1.000  0.215    0.000     0.000
           55   4199    1135.15        27.218         0.611      0.000   0.063        1.000  0.215    0.000     0.000
           55   4200    1735.25        27.218         0.611      0.000   0.063        1.000  0.215    0.000     0.000
           55   4201     397.31        27.218         0.611      0.000   0.063        1.000  0.215    0.000     0.000
           55   4202    3043.70        27.218         0.611      0.000   0.063        1.000  0.215    0.000     0.000
           55   4203    7678.60        27.218         0.611      0.000   0.063        1.000  0.215    0.000     0.000
           55   4204    1396.22        27.218         0.611      0.000   0.063        1.000  0.215    0.000     0.000
           55   4205    4756.78        27.218         0.611      0.000   0.063        1.000  0.215    0.000     0.000
           55   4206    1485.36        27.218         0.611      0.000   0.063        1.000  0.215    0.000     0.000
           55   4207     585.91        27.218         0.611      0.000   0.063        1.000  0.215    0.000     0.000
           55   4208     513.22        27.218         0.611      0.000   0.063        1.000  0.215    0.000     0.000
           55   4209     357.34        27.218         0.611      0.000   0.063        1.000  0.215    0.000     0.000
           55   4210     266.56        27.218         0.611      0.000   0.063        1.000  0.215    0.000     0.000
           55   4211     192.50        27.218         0.611      0.000   0.063        1.000  0.215    0.000     0.000
           55   4212    3750.35        27.218         0.611      0.000   0.063        1.000  0.215    0.000     0.000
           55   4213    1036.67        27.218         0.611      0.000   0.063        1.000  0.215    0.000     0.000
           55   4214    4183.87        27.218         0.611      0.000   0.063        1.000  0.215    0.000     0.000
           55   4215     375.80        27.218         0.611      0.000   0.063        1.000  0.215    0.000     0.000
           55   4216     905.03        27.218         0.611      0.000   0.063        1.000  0.215    0.000     0.000
           55   4217    3030.97        27.218         0.611      0.000   0.063        1.000  0.215    0.000     0.000
           55   4218     868.87        27.218         0.611      0.000   0.063        1.000  0.215    0.000     0.000
           55   4219     394.82        27.218         0.611      0.000   0.063        1.000  0.215    0.000     0.000
           55   4220     547.83        27.218         0.611      0.000   0.063        1.000  0.215    0.000     0.000
           55   4221     724.74        27.218         0.611      0.000   0.063        1.000  0.215    0.000     0.000
           55   4222    2860.12        27.218         0.611      0.000   0.063        1.000  0.215    0.000     0.000
           55   4223     430.89        27.218         0.611      0.000   0.063        1.000  0.215    0.000     0.000
           55   4224     320.29        27.218         0.611      0.000   0.063        1.000  0.215    0.000     0.000
           55   4225    1063.30        27.218         0.611      0.000   0.063        1.000  0.215    0.000     0.000
           55   4226    3308.43        27.218         0.611      0.000   0.063        1.000  0.215    0.000     0.000
           55   4227    4759.03        27.218         0.611      0.000   0.063        1.000  0.215    0.000     0.000
           55   4228     924.24        27.218         0.611      0.000   0.063        1.000  0.215    0.000     0.000
           55   4229     345.74        27.218         0.611      0.000   0.063        1.000  0.215    0.000     0.000
           55   4230    2159.42        27.218         0.611      0.000   0.063        1.000  0.215    0.000     0.000
           55   4231    1555.33        27.218         0.611      0.000   0.063        1.000  0.215    0.000     0.000
           55   4232    8581.38        27.218         0.611      0.000   0.063        1.000  0.215    0.000     0.000
           55   4233    7271.67        27.218         0.611      0.000   0.063        1.000  0.215    0.000     0.000
           55   4234   17372.40        27.218         0.611      0.000   0.063        1.000  0.215    0.000     0.000
           55   4235    6859.80        27.218         0.611      0.000   0.063        1.000  0.215    0.000     0.000
           55   4236   48388.98        27.218         0.611      0.000   0.063        1.000  0.215    0.000     0.000
           55   4237   34254.70        27.218         0.611      0.000   0.063        1.000  0.215    0.000     0.000

         Tributary/Main Channel Characteristics
              |--------------Tributary--------------------|---------------------Main---------------------------|
          Sub  Length(km) Slope Width(m) Cond(mm/hr)     N Length(km) Slope Width(m) Depth(m) Cond(mm/hr)     N
            1      122.27 0.005   115.24      0.0000 0.014      24.63 0.000   115.24     2.60     97.8730 0.190
            2      227.73 0.003   119.00      0.0000 0.014     104.74 0.001   119.00     2.65     83.0500 0.217
            3      122.14 0.001   115.99      0.0000 0.014      30.97 0.001  1336.83    13.31     50.4260 0.043
            4       41.73 0.009    45.33      0.0000 0.014      13.89 0.001   221.44     4.01     97.8730 0.190
            5       25.50 0.010    27.37      0.0000 0.014      14.11 0.001   211.86     3.90     97.8730 0.190
            6       66.15 0.003    67.28      0.0000 0.014      46.33 0.003   207.63     3.85     97.8730 0.190
            7      100.63 0.001    92.81      0.0000 0.014      77.12 0.000  1323.15    13.22     93.3400 0.360
            8       75.51 0.016    91.31      0.0000 0.014      12.07 0.000    91.31     2.22      9.5100 0.454
            9       88.82 0.016    83.24      0.0000 0.014      54.69 0.003   132.38     2.85      9.5100 0.454
           10      311.48 0.003   139.56      0.0000 0.014     195.81 0.000   139.56     2.95     10.3170 0.198
           11      135.20 0.003   111.40      0.0000 0.014     131.23 0.001   301.60     4.93    112.5810 0.398
           12      417.55 0.002   215.98      0.0000 0.014      12.48 0.005   273.58     4.62     84.6210 0.162
           13      313.34 0.004   202.25      0.0000 0.014     198.30 0.002   202.25     3.78      3.5640 0.147
           14      107.12 0.001   170.89      0.0000 0.014      71.09 0.000  1313.66    13.16     93.3400 0.360
           15       66.65 0.002    57.30      0.0000 0.014      51.38 0.001   357.31     5.52    117.7500 0.372
           16       89.81 0.002    76.79      0.0000 0.014      85.87 0.000   319.74     5.13    112.5810 0.398
           17        5.12 0.012     4.20      0.0000 0.014       1.21 0.000   534.89     7.23     63.1640 0.181
           18      111.94 0.014   103.78      0.0000 0.014      53.85 0.000   383.96     5.80    117.7500 0.372
           19      101.68 0.002    87.09      0.0000 0.014      82.86 0.000   297.26     4.89     38.5150 0.290
           20       19.07 0.006    21.62      0.0000 0.014      13.26 0.000   299.52     4.91     38.5150 0.290
           21      139.11 0.003   132.12      0.0000 0.014      52.89 0.001   132.12     2.85     24.0960 0.388
           22       69.19 0.004    48.43      0.0000 0.014      18.85 0.000   351.16     5.46     38.5150 0.290
           23      155.89 0.010   115.38      0.0000 0.014      69.74 0.005   115.38     2.60      0.8340 0.171
           24      146.38 0.011   110.91      0.0000 0.014      70.49 0.000   557.87     7.43     63.1640 0.181
           25       64.35 0.002    50.20      0.0000 0.014      30.67 0.000   305.36     4.97    108.3050 0.239
           26      115.15 0.010    91.26      0.0000 0.014      25.81 0.000   257.10     4.44    139.1820 0.302
           27      274.80 0.005   210.31      0.0000 0.014     166.89 0.002   210.31     3.88     70.1590 0.239
           28        2.89 0.027   118.08      0.0000 0.014      81.94 0.000   797.07     9.43     63.1640 0.181
           29      218.83 0.001   174.55      0.0000 0.014     178.91 0.000   253.09     4.39    108.3050 0.239
           30      122.31 0.011   119.68      0.0000 0.014      35.34 0.001   119.68     2.66     53.0580 0.376
           31      144.18 0.006   129.49      0.0000 0.014      26.40 0.000   188.93     3.61     89.4420 0.445
           32      114.15 0.012   104.66      0.0000 0.014      64.81 0.004   228.57     4.10    139.1820 0.302
           33      165.25 0.001   124.41      0.0000 0.014     158.75 0.000   159.16     3.22      6.9770 0.094
           34       84.47 0.002    82.83      0.0000 0.014       2.69 0.001    82.83     2.09      6.9770 0.094
           35       73.51 0.002    81.81      0.0000 0.014      25.09 0.000   261.11     4.48    104.4750 0.285
           36      174.03 0.001   203.23      0.0000 0.014     127.82 0.000  1215.60    12.49     18.7960 0.201
           37      110.16 0.007   116.09      0.0000 0.014      67.59 0.003   237.76     4.21    104.4750 0.285
           38      208.90 0.001   122.89      0.0000 0.014     119.66 0.001   122.89     2.71     44.8820 0.189
           39      119.52 0.008   141.26      0.0000 0.014      40.32 0.002   141.26     2.97    104.4750 0.285
           40       29.22 0.007    22.35      0.0000 0.014      19.61 0.002   110.14     2.52    103.0700 0.221
           41       86.16 0.004    98.92      0.0000 0.014      14.58 0.000    98.92     2.35     67.0980 0.293
           42      130.91 0.001   125.19      0.0000 0.014      89.73 0.000   889.83    10.15     75.6810 0.325
           43      114.09 0.004   105.05      0.0000 0.014       5.24 0.000   904.91    10.26     75.6810 0.325
           44      144.99 0.006   105.44      0.0000 0.014      41.71 0.004   105.44     2.45    103.0700 0.221
           45      167.69 0.004   104.83      0.0000 0.014      34.49 0.000   104.83     2.44     56.7840 0.389
           46       49.74 0.009    52.12      0.0000 0.014      10.19 0.000   936.40    10.50     58.4120 0.110
           47      135.81 0.002    92.97      0.0000 0.014      69.35 0.000   917.10    10.35     75.6810 0.325
           48      152.18 0.003   121.15      0.0000 0.014     141.57 0.001   167.35     3.33     67.0980 0.293
           49       56.86 0.001    71.85      0.0000 0.014      26.82 0.000  1178.21    12.24     18.7960 0.201
           50      137.58 0.001   160.76      0.0000 0.014      82.64 0.000  1171.52    12.19    129.2370 0.133
           51      115.39 0.001   156.55      0.0000 0.014      23.94 0.001  1125.08    11.87    129.2370 0.133
           52      185.77 0.001   140.72      0.0000 0.014      70.69 0.000   234.06     4.17     94.5110 0.282
           53      234.47 0.002   272.62      0.0000 0.014     112.33 0.000  1099.67    11.69     86.9310 0.271
           54      206.08 0.001   139.11      0.0000 0.014      34.68 0.000   139.11     2.94     72.0770 0.193
           55      145.71 0.003   205.90      0.0000 0.014     112.92 0.000   980.71    10.83     58.4120 0.110
