1
    SWAT Jun 11 2014    VER 2012/Rev 627                                                                 0/ 0/   0      0: 0: 0

    General Input/Output section (file.cio):                                        
    11/15/2017 12:00:00 AM ARCGIS-SWAT interface AV                                 
                                                                                    
         Number of years in run:   29
         Area of watershed:   106124.000 km2
1
    SWAT Jun 11 2014    VER 2012/Rev 627                                            

    General Input/Output section (file.cio):                                        
    11/15/2017 12:00:00 AM ARCGIS-SWAT interface AV                                 
                                                                                    
Annual Summary for Watershed in year    1 of simulation

UNIT                                    PERCO    TILE                           WATER     SED     NO3     NO3     NO3     NO3        N       P       P
TIME     PREC    SURQ    LATQ     GWQ    LATE       Q     SW       ET     PET   YIELD   YIELD    SURQ    LATQ    PERC    CROP  ORGANIC SOLUBLE ORGANIC TILENO3
         (mm)    (mm)    (mm)    (mm)    (mm)    (mm)    (mm)    (mm)    (mm)    (mm)    (mm)   ------------------(kg nutrient/ha)-------------------- (kg/ha)
    1   85.06    7.66    2.69    0.06    0.72    0.00  255.73   23.96   30.07    7.92    0.14    0.01    0.11    0.30    0.00     0.35    0.01    0.01    0.00
    2  122.17   25.45    9.13    4.75   22.80    0.00  280.66   40.51   48.22   42.09    1.11    0.01    0.71    6.49    0.00     3.54    0.07    0.05    0.00
    3   63.18    2.73    3.98    3.87    2.77    0.00  262.26   72.88  103.60   14.25    0.02    0.00    0.07    0.50    0.00     0.18    0.00    0.00    0.00
    4   83.29    5.18    5.46    2.77    3.02    0.00  237.35   95.17  149.75   15.58    0.04    0.01    0.04    0.60    2.68     0.12    0.00    0.00    0.00
    5  105.18    6.97    7.74    3.84    8.26    0.00  213.61  106.97  155.22   20.79    0.02    0.02    0.06    1.45   21.57     0.08    0.01    0.00    0.00
    6  104.69    5.55    5.91    2.31    1.03    0.00  200.00  106.58  140.93   15.30    0.00    0.01    0.01    0.02    8.30     0.01    0.00    0.00    0.00
    7  134.29    7.97    7.91    1.59    5.10    0.00  212.39  100.10  128.48   17.80    0.01    0.00    0.01    0.10    1.63     0.01    0.01    0.00    0.00
    8  153.98   12.62   13.24    4.49   14.25    0.00  224.25  101.10  122.47   32.65    0.01    0.00    0.02    0.46    2.08     0.01    0.02    0.00    0.00
    9   42.80    2.28    3.71    3.13    1.87    0.00  185.11   77.06  117.49   12.07    0.00    0.00    0.00    0.03    2.47     0.00    0.00    0.00    0.00
   10  108.50    5.92    7.05    2.48    4.33    0.00  210.55   64.08   87.11   17.46    0.00    0.00    0.00    0.07    0.77     0.01    0.00    0.00    0.00
   11  127.29   11.24   11.64    3.26   12.74    0.00  252.19   45.99   64.63   25.80    0.01    0.00    0.02    0.44    0.35     0.01    0.01    0.00    0.00
   12   44.84    2.26    8.49    4.95   11.38    0.00  251.69   24.97   37.92   20.97    0.00    0.00    0.02    0.37    0.02     0.00    0.01    0.00    0.00

 1985 1175.25   95.83   86.97   37.50   88.29    0.00  251.69  859.38 1185.88  242.70    1.36    0.08    1.08   10.83   39.88     4.33    0.15    0.09    0.00
1
    SWAT Jun 11 2014    VER 2012/Rev 627                                            

    General Input/Output section (file.cio):                                        
    11/15/2017 12:00:00 AM ARCGIS-SWAT interface AV                                 
                                                                                    
Annual Summary for Watershed in year    2 of simulation

UNIT                                    PERCO    TILE                           WATER     SED     NO3     NO3     NO3     NO3        N       P       P
TIME     PREC    SURQ    LATQ     GWQ    LATE       Q     SW       ET     PET   YIELD   YIELD    SURQ    LATQ    PERC    CROP  ORGANIC SOLUBLE ORGANIC TILENO3
         (mm)    (mm)    (mm)    (mm)    (mm)    (mm)    (mm)    (mm)    (mm)    (mm)    (mm)   ------------------(kg nutrient/ha)-------------------- (kg/ha)
    1   32.05    2.44    3.05    2.99    3.63    0.00  247.91   28.43   50.46   10.97    0.00    0.01    0.02    0.09    0.00     0.00    0.00    0.00    0.00
    2  117.24   14.17   14.70    8.63   31.80    0.00  265.67   34.63   52.49   40.75    0.01    0.03    0.17    1.86    0.01     0.02    0.03    0.00    0.00
    3   74.96    7.17    9.56    9.75   15.24    0.00  239.31   71.66  124.94   33.25    0.01    0.02    0.08    0.74    0.03     0.01    0.01    0.00    0.00
    4   34.82    1.19    2.60    5.61    1.16    0.00  207.21   65.02  146.91   14.39    0.00    0.00    0.02    0.01    3.48     0.00    0.00    0.00    0.00
    5  128.71    7.96    7.20    3.71    6.15    0.00  232.82   79.27  141.70   21.21    0.01    0.05    0.02    0.21   16.80     0.01    0.01    0.00    0.00
    6   70.05    3.54    6.81    5.52    6.30    0.00  187.84  102.26  153.38   18.95    0.00    0.01    0.02    0.19   10.89     0.00    0.01    0.00    0.00
    7   78.23    4.49    5.18    3.69    0.55    0.00  155.26  102.90  154.13   15.33    0.00    0.00    0.00    0.00    2.12     0.00    0.00    0.00    0.00
    8  126.37    6.83    7.32    2.65    2.15    0.00  181.45   83.24  119.42   18.00    0.00    0.00    0.00    0.02    2.51     0.01    0.00    0.00    0.00
    9  101.75    7.04   10.06    3.34    6.40    0.00  181.61   79.22  105.79   22.02    0.00    0.00    0.00    0.05    2.54     0.01    0.01    0.00    0.00
   10  120.97    8.41    9.10    3.47    7.17    0.00  217.38   58.08   93.07   22.41    0.01    0.01    0.01    0.08    0.80     0.01    0.01    0.00    0.00
   11  194.96   22.22   24.36   13.34   55.27    0.00  266.77   36.22   48.76   62.23    0.01    0.01    0.03    0.84    0.27     0.02    0.04    0.01    0.00
   12  129.69   18.74   24.67   27.01   52.78    0.00  273.51   26.98   37.28   81.16    0.01    0.01    0.05    0.84    0.03     0.02    0.04    0.00    0.00

 1986 1209.79  104.19  124.61   89.72  188.60    0.00  273.51  767.90 1228.34  360.67    0.06    0.15    0.42    4.93   39.49     0.12    0.16    0.04    0.00
1
    SWAT Jun 11 2014    VER 2012/Rev 627                                            

    General Input/Output section (file.cio):                                        
    11/15/2017 12:00:00 AM ARCGIS-SWAT interface AV                                 
                                                                                    
Annual Summary for Watershed in year    3 of simulation

UNIT                                    PERCO    TILE                           WATER     SED     NO3     NO3     NO3     NO3        N       P       P
TIME     PREC    SURQ    LATQ     GWQ    LATE       Q     SW       ET     PET   YIELD   YIELD    SURQ    LATQ    PERC    CROP  ORGANIC SOLUBLE ORGANIC TILENO3
         (mm)    (mm)    (mm)    (mm)    (mm)    (mm)    (mm)    (mm)    (mm)    (mm)    (mm)   ------------------(kg nutrient/ha)-------------------- (kg/ha)
    1  112.48   18.48   15.79   19.29   37.33    0.00  287.49   24.92   37.01   62.35    0.01    0.02    0.07    0.68    0.00     0.03    0.04    0.00    0.00
    2  155.08   23.74   19.03   19.69   59.74    0.00  298.24   32.98   46.51   68.31    0.01    0.03    0.09    1.69    0.00     0.03    0.04    0.01    0.00
    3   88.92    7.42   17.02   25.09   23.46    0.00  273.40   72.83  107.51   71.75    0.01    0.02    0.07    0.53    0.02     0.02    0.03    0.00    0.00
    4   87.87    9.23   12.71   13.60   17.88    0.00  240.75   83.37  132.27   46.85    0.01    0.02    0.06    0.45    2.53     0.02    0.02    0.00    0.00
    5   85.80    4.43    5.18    9.07    3.48    0.00  223.93   91.03  159.76   27.33    0.00    0.06    0.02    0.02   17.78     0.01    0.01    0.00    0.00
    6  114.64    5.79    8.24    6.62    7.16    0.00  216.17  102.21  137.00   26.08    0.00    0.01    0.01    0.05    8.77     0.01    0.00    0.00    0.00
    7   82.50    4.93    7.93    6.89    6.67    0.00  175.79  106.58  149.39   24.79    0.00    0.00    0.00    0.00    2.08     0.01    0.01    0.00    0.00
    8   50.83    2.34    3.18    4.73    0.73    0.00  144.79   78.17  137.58   13.67    0.00    0.00    0.00    0.00    2.37     0.00    0.00    0.00    0.00
    9  108.87    5.67    6.73    3.79    1.43    0.00  177.74   61.42  101.00   18.15    0.00    0.00    0.00    0.01    1.71     0.01    0.00    0.00    0.00
   10   21.55    0.70    2.58    3.33    0.45    0.00  149.34   49.23   94.42    8.70    0.00    0.00    0.00    0.00    0.37     0.00    0.00    0.00    0.00
   11  100.41    5.75    6.14    3.08    1.81    0.00  196.06   37.15   68.68   15.97    0.00    0.00    0.01    0.07    0.26     0.01    0.00    0.00    0.00
   12  133.50   13.94   12.29    4.99   18.19    0.00  251.24   28.30   42.14   30.92    0.01    0.01    0.02    0.38    0.03     0.02    0.02    0.00    0.00

 1987 1142.45  102.42  116.82  120.16  178.33    0.00  251.24  768.20 1213.27  414.86    0.08    0.17    0.36    3.89   35.92     0.17    0.18    0.04    0.00
1
    SWAT Jun 11 2014    VER 2012/Rev 627                                            

    General Input/Output section (file.cio):                                        
    11/15/2017 12:00:00 AM ARCGIS-SWAT interface AV                                 
                                                                                    
Annual Summary for Watershed in year    4 of simulation

UNIT                                    PERCO    TILE                           WATER     SED     NO3     NO3     NO3     NO3        N       P       P
TIME     PREC    SURQ    LATQ     GWQ    LATE       Q     SW       ET     PET   YIELD   YIELD    SURQ    LATQ    PERC    CROP  ORGANIC SOLUBLE ORGANIC TILENO3
         (mm)    (mm)    (mm)    (mm)    (mm)    (mm)    (mm)    (mm)    (mm)    (mm)    (mm)   ------------------(kg nutrient/ha)-------------------- (kg/ha)
    1  119.19   21.75   16.74   16.86   40.78    0.00  264.94   26.21   38.47   61.57    0.02    0.03    0.04    0.63    0.00     0.04    0.06    0.01    0.00
    2   73.68    7.60   10.25   14.44   20.63    0.00  261.82   38.66   54.66   41.08    0.01    0.01    0.03    0.35    0.00     0.02    0.02    0.00    0.00
    3   68.84    4.14    5.44    8.94    6.87    0.00  248.92   66.21  100.06   25.08    0.00    0.01    0.02    0.14    0.02     0.01    0.01    0.00    0.00
    4  104.37    7.43    8.69    8.88   13.46    0.00  237.62   86.50  128.87   29.94    0.01    0.01    0.03    0.37    1.08     0.02    0.01    0.00    0.00
    5   62.39    3.16    4.11    5.53    1.57    0.00  201.93   91.84  173.99   16.84    0.00    0.06    0.01    0.02   13.92     0.01    0.00    0.00    0.00
    6   15.42    0.77    1.63    3.58    0.51    0.00  148.38   70.76  167.15    8.46    0.00    0.01    0.01    0.00   10.85     0.00    0.00    0.00    0.00
    7  132.23    6.88    7.13    2.93    1.09    0.00  174.01   90.37  139.04   18.38    0.01    0.01    0.01    0.00    3.38     0.01    0.00    0.00    0.00
    8   84.89    4.11    6.28    2.70    1.68    0.00  155.74   93.15  138.00   14.51    0.00    0.00    0.00    0.00    1.43     0.00    0.00    0.00    0.00
    9  143.77    9.35   10.76    3.76    7.42    0.00  197.38   72.40   98.19   25.06    0.01    0.01    0.01    0.05    2.56     0.01    0.01    0.00    0.00
   10   72.55    3.52    6.41    4.20    4.12    0.00  199.72   57.29   84.00   16.40    0.00    0.00    0.00    0.04    0.41     0.01    0.00    0.00    0.00
   11  165.55   19.57   14.83    7.01   26.35    0.00  254.30   43.36   53.76   41.94    0.01    0.01    0.01    0.32    0.29     0.03    0.04    0.01    0.00
   12   86.65   10.96   10.21   10.68   23.73    0.00  262.30   32.33   45.92   35.26    0.01    0.01    0.01    0.27    0.01     0.01    0.02    0.00    0.00

 1988 1129.53   99.23  102.47   89.50  148.19    0.00  262.30  769.10 1222.11  334.53    0.08    0.17    0.19    2.19   33.95     0.16    0.17    0.04    0.00
1
    SWAT Jun 11 2014    VER 2012/Rev 627                                            

    General Input/Output section (file.cio):                                        
    11/15/2017 12:00:00 AM ARCGIS-SWAT interface AV                                 
                                                                                    
Annual Summary for Watershed in year    5 of simulation

UNIT                                    PERCO    TILE                           WATER     SED     NO3     NO3     NO3     NO3        N       P       P
TIME     PREC    SURQ    LATQ     GWQ    LATE       Q     SW       ET     PET   YIELD   YIELD    SURQ    LATQ    PERC    CROP  ORGANIC SOLUBLE ORGANIC TILENO3
         (mm)    (mm)    (mm)    (mm)    (mm)    (mm)    (mm)    (mm)    (mm)    (mm)    (mm)   ------------------(kg nutrient/ha)-------------------- (kg/ha)
    1  170.29   25.02   27.76   30.87   70.79    0.00  273.59   32.19   43.32   94.60    0.02    0.04    0.06    0.93    0.00     0.05    0.07    0.01    0.00
    2  200.86   34.10   26.78   28.86   79.18    0.00  295.28   29.06   38.94   97.34    0.03    0.03    0.09    1.71    0.01     0.09    0.08    0.01    0.00
    3  149.26   20.01   24.47   34.63   49.44    0.00  280.56   73.67  104.49   99.24    0.02    0.02    0.06    0.89    0.04     0.05    0.06    0.01    0.00
    4  100.87   11.55   15.39   24.42   33.12    0.00  241.61   82.85  133.32   67.85    0.01    0.02    0.04    0.62    3.91     0.04    0.03    0.00    0.00
    5  150.04   13.74   14.27   14.85   17.78    0.00  240.01  105.79  139.88   54.47    0.01    0.05    0.02    0.23   12.04     0.05    0.02    0.01    0.00
    6  252.08   30.30   27.16   21.32   61.31    0.00  267.59   99.60  114.96   88.41    0.04    0.07    0.05    0.87   11.00     0.11    0.06    0.01    0.00
    7  179.42   18.18   22.15   27.35   43.63    0.00  249.92  114.51  134.32   83.12    0.01    0.01    0.01    0.04    2.16     0.05    0.04    0.01    0.00
    8   98.86    6.27    7.69   14.03    4.59    0.00  237.96   94.19  126.53   38.68    0.00    0.00    0.00    0.01    1.63     0.01    0.01    0.00    0.00
    9  203.56   25.64   17.65   11.82   33.87    0.00  282.60   73.72   92.02   57.47    0.04    0.01    0.00    0.12    2.19     0.03    0.04    0.01    0.00
   10   88.34   16.70   19.14   21.89   31.03    0.00  244.69   66.47   89.58   75.46    0.03    0.01    0.00    0.10    0.73     0.03    0.06    0.01    0.00
   11  138.42   13.70   14.93   16.05   33.07    0.00  272.80   44.76   58.11   54.51    0.01    0.01    0.01    0.20    0.20     0.01    0.02    0.00    0.00
   12   85.21   15.45    8.55   14.97   20.73    0.00  289.74   22.83   31.37   43.56    0.01    0.01    0.01    0.14    0.01     0.02    0.02    0.00    0.00

 1989 1817.22  230.67  225.95  261.06  478.55    0.00  289.74  839.64 1106.84  854.72    0.24    0.27    0.36    5.84   33.91     0.55    0.52    0.07    0.00
1
    SWAT Jun 11 2014    VER 2012/Rev 627                                            

    General Input/Output section (file.cio):                                        
    11/15/2017 12:00:00 AM ARCGIS-SWAT interface AV                                 
                                                                                    
Annual Summary for Watershed in year    6 of simulation

UNIT                                    PERCO    TILE                           WATER     SED     NO3     NO3     NO3     NO3        N       P       P
TIME     PREC    SURQ    LATQ     GWQ    LATE       Q     SW       ET     PET   YIELD   YIELD    SURQ    LATQ    PERC    CROP  ORGANIC SOLUBLE ORGANIC TILENO3
         (mm)    (mm)    (mm)    (mm)    (mm)    (mm)    (mm)    (mm)    (mm)    (mm)    (mm)   ------------------(kg nutrient/ha)-------------------- (kg/ha)
    1  157.83   19.70   25.35   26.79   73.36    0.00  286.85   36.42   49.30   87.23    0.02    0.03    0.04    0.78    0.00     0.04    0.05    0.01    0.00
    2  211.72   48.25   34.69   41.57   86.40    0.00  282.40   43.38   56.25  142.53    0.07    0.05    0.07    1.37    0.01     0.14    0.14    0.01    0.00
    3  166.07   24.92   23.98   34.26   53.91    0.00  274.75   70.38   99.80  104.13    0.05    0.02    0.05    0.84    0.03     0.10    0.06    0.01    0.00
    4   96.34    7.52    7.53   18.69    8.14    0.00  253.28   96.43  142.70   48.87    0.01    0.03    0.02    0.17    4.68     0.03    0.01    0.00    0.00
    5  165.12   13.49   14.93   16.88   22.32    0.00  252.36  114.22  143.03   55.70    0.01    0.05    0.03    0.43   13.87     0.03    0.02    0.01    0.00
    6   65.96    3.96    6.33   11.42    2.99    0.00  205.47  103.69  151.20   29.73    0.00    0.01    0.01    0.01    9.53     0.01    0.01    0.00    0.00
    7  118.35    7.88    9.21    8.32    5.53    0.00  204.36   97.73  144.62   30.23    0.01    0.00    0.00    0.00    2.33     0.01    0.01    0.00    0.00
    8   74.21    4.31    5.68    6.91    2.12    0.00  180.07   88.94  141.31   20.20    0.00    0.00    0.00    0.00    1.47     0.01    0.00    0.00    0.00
    9   84.93    4.38    6.50    5.89    3.20    0.00  183.47   68.25  105.61   19.55    0.00    0.00    0.00    0.00    2.41     0.01    0.00    0.00    0.00
   10  133.11   10.91   12.58    6.37   13.67    0.00  213.97   63.18   91.32   32.38    0.01    0.01    0.01    0.03    0.56     0.02    0.01    0.00    0.00
   11   79.15    4.64    6.60    6.91    5.14    0.00  226.09   50.53   76.11   22.20    0.00    0.00    0.00    0.06    0.23     0.01    0.01    0.00    0.00
   12  308.95   67.91   33.90   22.72   93.17    0.00  295.08   26.92   35.73  124.22    0.11    0.02    0.03    1.13    0.13     0.15    0.16    0.02    0.00

 1990 1661.73  217.86  187.28  206.73  369.96    0.00  295.08  860.06 1236.96  716.98    0.29    0.24    0.27    4.82   35.24     0.54    0.49    0.07    0.00
1
    SWAT Jun 11 2014    VER 2012/Rev 627                                            

    General Input/Output section (file.cio):                                        
    11/15/2017 12:00:00 AM ARCGIS-SWAT interface AV                                 
                                                                                    
Annual Summary for Watershed in year    7 of simulation

UNIT                                    PERCO    TILE                           WATER     SED     NO3     NO3     NO3     NO3        N       P       P
TIME     PREC    SURQ    LATQ     GWQ    LATE       Q     SW       ET     PET   YIELD   YIELD    SURQ    LATQ    PERC    CROP  ORGANIC SOLUBLE ORGANIC TILENO3
         (mm)    (mm)    (mm)    (mm)    (mm)    (mm)    (mm)    (mm)    (mm)    (mm)    (mm)   ------------------(kg nutrient/ha)-------------------- (kg/ha)
    1   80.53    8.13   21.93   37.42   37.66    0.00  281.95   33.65   44.07   89.29    0.01    0.02    0.03    0.34    0.00     0.02    0.04    0.00    0.00
    2  188.20   48.92   24.19   27.22   69.24    0.00  281.46   39.70   53.46  109.79    0.11    0.03    0.07    1.40    0.00     0.20    0.15    0.02    0.00
    3  194.57   29.02   24.69   30.82   52.31    0.00  291.16   75.25  102.72   99.69    0.05    0.02    0.06    1.02    0.02     0.12    0.08    0.01    0.00
    4  158.19   15.39   19.57   26.82   42.50    0.00  281.61   90.85  122.96   79.90    0.02    0.06    0.03    1.16    3.80     0.08    0.05    0.01    0.00
    5  188.25   30.05   20.34   26.55   45.95    0.00  253.19  118.51  147.00   86.47    0.03    0.08    0.03    1.10   16.29     0.12    0.07    0.01    0.00
    6  132.16   10.57   13.79   18.37    9.85    0.00  251.11  103.30  128.55   56.24    0.01    0.03    0.02    0.05    7.58     0.03    0.03    0.01    0.00
    7  104.25    7.09    8.37   11.43    4.09    0.00  226.72  112.05  148.76   33.60    0.01    0.01    0.01    0.00    2.56     0.01    0.01    0.00    0.00
    8  106.49    7.05    9.84    8.70    9.51    0.00  218.92   89.19  127.24   31.48    0.01    0.00    0.00    0.00    1.65     0.01    0.01    0.00    0.00
    9   70.72    4.41    6.11    6.82    2.23    0.00  209.69   69.43  111.62   22.23    0.00    0.00    0.00    0.02    2.03     0.00    0.00    0.00    0.00
   10   42.60    2.03    3.54    5.95    1.23    0.00  191.72   55.36  101.83   15.25    0.00    0.00    0.00    0.01    0.62     0.00    0.00    0.00    0.00
   11  103.59    8.45    7.01    5.36    5.41    0.00  236.99   34.71   59.08   22.53    0.01    0.00    0.01    0.09    0.18     0.01    0.01    0.00    0.00
   12  259.49   53.30   36.17   28.56   84.17    0.00  283.51   31.03   38.67  125.75    0.09    0.01    0.03    1.07    0.06     0.13    0.16    0.01    0.00

 1991 1629.03  224.40  195.54  234.02  364.14    0.00  283.51  853.03 1185.96  772.22    0.36    0.28    0.30    6.26   34.81     0.75    0.61    0.09    0.00
1
    SWAT Jun 11 2014    VER 2012/Rev 627                                            

    General Input/Output section (file.cio):                                        
    11/15/2017 12:00:00 AM ARCGIS-SWAT interface AV                                 
                                                                                    
Annual Summary for Watershed in year    8 of simulation

UNIT                                    PERCO    TILE                           WATER     SED     NO3     NO3     NO3     NO3        N       P       P
TIME     PREC    SURQ    LATQ     GWQ    LATE       Q     SW       ET     PET   YIELD   YIELD    SURQ    LATQ    PERC    CROP  ORGANIC SOLUBLE ORGANIC TILENO3
         (mm)    (mm)    (mm)    (mm)    (mm)    (mm)    (mm)    (mm)    (mm)    (mm)    (mm)   ------------------(kg nutrient/ha)-------------------- (kg/ha)
    1   88.50    8.98   16.75   26.61   37.14    0.00  276.44   34.41   45.34   65.51    0.01    0.02    0.03    0.41    0.00     0.02    0.02    0.00    0.00
    2  102.25    9.81   10.73   15.13   27.16    0.00  285.78   41.65   61.27   43.12    0.02    0.01    0.03    0.59    0.00     0.03    0.02    0.00    0.00
    3  125.49   13.71   15.57   18.97   30.63    0.00  280.20   71.72   98.64   59.54    0.02    0.02    0.05    0.73    0.02     0.06    0.04    0.01    0.00
    4   71.50    4.38    6.90   12.92    6.91    0.00  248.60   87.96  138.48   33.33    0.01    0.01    0.02    0.18    2.87     0.02    0.01    0.00    0.00
    5   88.73    8.32    6.12    9.06    5.68    0.00  228.57   90.06  156.99   29.35    0.01    0.06    0.02    0.08   12.21     0.05    0.01    0.00    0.00
    6  156.29   13.42   14.41    9.70   18.17    0.00  239.91   98.42  124.28   43.63    0.02    0.04    0.02    0.23   12.69     0.07    0.02    0.01    0.00
    7  139.14    8.17   11.50   11.82   14.48    0.00  239.50  105.55  130.93   38.60    0.01    0.01    0.01    0.05    3.52     0.02    0.01    0.00    0.00
    8  142.94   11.65   11.14    8.54   14.26    0.00  253.65   90.17  113.36   35.17    0.01    0.00    0.00    0.01    1.29     0.02    0.01    0.00    0.00
    9  120.07    9.10   12.32   11.54   20.12    0.00  253.40   79.33   99.65   39.90    0.01    0.01    0.00    0.09    1.47     0.01    0.02    0.00    0.00
   10   72.08    6.23    8.37   10.55   10.58    0.00  233.47   68.95   91.26   31.98    0.01    0.00    0.00    0.03    1.43     0.01    0.01    0.00    0.00
   11  162.68   13.67   19.76   15.21   45.90    0.00  270.54   40.61   48.02   55.44    0.01    0.01    0.00    0.26    0.28     0.02    0.02    0.01    0.00
   12  139.59   16.08   22.82   21.08   54.38    0.00  283.48   29.66   36.64   69.18    0.02    0.01    0.01    0.35    0.03     0.03    0.03    0.01    0.00

 1992 1409.27  123.51  156.39  171.12  285.41    0.00  283.48  838.48 1144.86  544.76    0.15    0.21    0.21    3.00   35.81     0.36    0.24    0.05    0.00
1
    SWAT Jun 11 2014    VER 2012/Rev 627                                            

    General Input/Output section (file.cio):                                        
    11/15/2017 12:00:00 AM ARCGIS-SWAT interface AV                                 
                                                                                    
Annual Summary for Watershed in year    9 of simulation

UNIT                                    PERCO    TILE                           WATER     SED     NO3     NO3     NO3     NO3        N       P       P
TIME     PREC    SURQ    LATQ     GWQ    LATE       Q     SW       ET     PET   YIELD   YIELD    SURQ    LATQ    PERC    CROP  ORGANIC SOLUBLE ORGANIC TILENO3
         (mm)    (mm)    (mm)    (mm)    (mm)    (mm)    (mm)    (mm)    (mm)    (mm)    (mm)   ------------------(kg nutrient/ha)-------------------- (kg/ha)
    1  113.59   10.29   22.21   29.25   53.31    0.00  281.14   30.21   39.58   77.34    0.01    0.03    0.04    0.60    0.00     0.02    0.02    0.00    0.00
    2   83.56    8.48   10.35   18.29   20.22    0.00  284.33   37.34   54.43   49.38    0.01    0.03    0.04    0.43    0.00     0.02    0.02    0.00    0.00
    3  164.63   23.10   22.33   23.78   58.26    0.00  287.03   57.68   75.22   81.72    0.04    0.03    0.08    1.67    0.01     0.13    0.06    0.01    0.00
    4  105.09    9.49   12.45   20.30   18.52    0.00  257.43   97.50  139.01   58.00    0.01    0.02    0.03    0.51    0.81     0.06    0.03    0.01    0.00
    5  118.93   11.14    8.79   15.84   13.04    0.00  238.81  105.57  155.21   46.59    0.02    0.05    0.02    0.40   13.29     0.06    0.03    0.01    0.00
    6   72.24    3.26    4.65    9.49    2.08    0.00  208.85   94.83  143.80   24.24    0.00    0.02    0.02    0.02   14.24     0.01    0.00    0.00    0.00
    7   56.85    2.76    3.94    6.98    0.79    0.00  164.36   97.23  162.53   17.90    0.00    0.00    0.00    0.00    2.84     0.00    0.00    0.00    0.00
    8  109.44    6.78    7.27    5.90    2.52    0.00  169.27   88.64  128.30   22.52    0.01    0.00    0.00    0.01    1.53     0.01    0.01    0.00    0.00
    9  107.61    5.05    6.69    5.01    1.73    0.00  195.14   67.37  102.05   18.59    0.00    0.00    0.00    0.03    2.48     0.01    0.00    0.00    0.00
   10   53.12    2.06    4.21    4.57    0.68    0.00  190.20   52.55   87.13   12.41    0.00    0.00    0.00    0.00    0.66     0.00    0.00    0.00    0.00
   11   93.89    7.45    7.81    4.76    6.18    0.00  217.73   42.95   61.89   20.80    0.01    0.00    0.01    0.13    0.19     0.01    0.01    0.00    0.00
   12  163.85   20.73   18.73   12.27   37.46    0.00  270.77   28.02   35.46   54.50    0.03    0.01    0.02    0.70    0.01     0.04    0.05    0.01    0.00

 1993 1242.79  110.58  129.44  156.45  214.77    0.00  270.77  799.88 1184.59  483.99    0.14    0.22    0.27    4.51   36.07     0.36    0.23    0.05    0.00
1
    SWAT Jun 11 2014    VER 2012/Rev 627                                            

    General Input/Output section (file.cio):                                        
    11/15/2017 12:00:00 AM ARCGIS-SWAT interface AV                                 
                                                                                    
Annual Summary for Watershed in year   10 of simulation

UNIT                                    PERCO    TILE                           WATER     SED     NO3     NO3     NO3     NO3        N       P       P
TIME     PREC    SURQ    LATQ     GWQ    LATE       Q     SW       ET     PET   YIELD   YIELD    SURQ    LATQ    PERC    CROP  ORGANIC SOLUBLE ORGANIC TILENO3
         (mm)    (mm)    (mm)    (mm)    (mm)    (mm)    (mm)    (mm)    (mm)    (mm)    (mm)   ------------------(kg nutrient/ha)-------------------- (kg/ha)
    1  164.88   35.05   20.89   21.30   65.79    0.00  285.62   24.09   31.09   81.80    0.08    0.03    0.04    1.18    0.00     0.10    0.09    0.01    0.00
    2  195.44   44.01   30.71   33.24   75.15    0.00  284.38   42.47   57.29  121.78    0.11    0.04    0.06    1.48    0.00     0.17    0.12    0.01    0.00
    3  258.96   59.72   32.80   35.10   81.57    0.00  296.25   65.23   89.44  140.14    0.29    0.03    0.06    1.51    0.01     0.33    0.16    0.02    0.00
    4  149.98   24.06   24.96   32.98   43.62    0.00  260.96   97.83  143.08  110.59    0.11    0.04    0.04    0.63    2.37     0.19    0.10    0.01    0.00
    5  105.69    7.79    9.44   17.90    8.63    0.00  238.82  104.86  156.97   51.05    0.01    0.06    0.02    0.14   11.88     0.03    0.02    0.00    0.00
    6  179.88   16.60   14.55   13.68   22.86    0.00  264.07   97.09  128.20   51.67    0.03    0.05    0.02    0.31   13.46     0.06    0.02    0.01    0.00
    7  164.47   10.93   20.02   16.68   35.12    0.00  259.51  102.52  122.38   57.68    0.02    0.01    0.01    0.08    2.66     0.03    0.02    0.01    0.00
    8  117.18   15.67   14.52   14.97   15.84    0.00  234.67   99.91  130.11   54.07    0.02    0.00    0.00    0.00    1.36     0.04    0.03    0.00    0.00
    9   84.61    4.08    6.78   10.55    4.21    0.00  229.70   76.41  102.06   30.01    0.00    0.00    0.00    0.02    2.24     0.01    0.01    0.00    0.00
   10  109.50    6.58    9.77   11.73   15.74    0.00  239.00   67.36   89.74   34.29    0.00    0.00    0.00    0.13    0.92     0.01    0.01    0.00    0.00
   11   97.16    8.06    6.35    9.65   11.16    0.00  258.71   48.66   67.55   27.65    0.00    0.00    0.00    0.14    0.26     0.01    0.01    0.00    0.00
   12   82.61    7.36   13.01   16.79   26.98    0.00  257.00   37.79   50.99   44.71    0.01    0.00    0.01    0.24    0.10     0.01    0.02    0.00    0.00

 1994 1710.35  239.93  203.79  234.56  406.66    0.00  257.00  864.21 1168.89  805.45    0.69    0.28    0.27    5.89   35.27     0.99    0.60    0.09    0.00
1
    SWAT Jun 11 2014    VER 2012/Rev 627                                            

    General Input/Output section (file.cio):                                        
    11/15/2017 12:00:00 AM ARCGIS-SWAT interface AV                                 
                                                                                    
Annual Summary for Watershed in year   11 of simulation

UNIT                                    PERCO    TILE                           WATER     SED     NO3     NO3     NO3     NO3        N       P       P
TIME     PREC    SURQ    LATQ     GWQ    LATE       Q     SW       ET     PET   YIELD   YIELD    SURQ    LATQ    PERC    CROP  ORGANIC SOLUBLE ORGANIC TILENO3
         (mm)    (mm)    (mm)    (mm)    (mm)    (mm)    (mm)    (mm)    (mm)    (mm)    (mm)   ------------------(kg nutrient/ha)-------------------- (kg/ha)
    1  155.49   22.40   19.58   20.53   51.03    0.00  282.46   31.04   41.09   69.78    0.03    0.04    0.05    0.82    0.00     0.06    0.05    0.01    0.00
    2  115.95   28.11   15.07   18.87   38.15    0.00  278.76   38.65   53.76   71.38    0.07    0.03    0.04    0.83    0.00     0.13    0.07    0.01    0.00
    3  116.22   17.25   18.75   23.90   41.93    0.00  249.66   68.27  111.28   75.14    0.03    0.02    0.05    1.04    0.04     0.07    0.06    0.01    0.00
    4   84.96    6.54    6.15   13.57    7.66    0.00  242.26   72.80  140.19   36.48    0.01    0.01    0.01    0.30    2.68     0.03    0.02    0.00    0.00
    5  137.37   12.72   11.59   12.73   11.80    0.00  228.99  114.84  158.92   44.18    0.01    0.05    0.02    0.28   13.41     0.04    0.03    0.01    0.00
    6  124.48    7.20    8.39    8.58    6.30    0.00  228.58  104.09  135.09   29.76    0.01    0.03    0.01    0.03   10.16     0.02    0.01    0.00    0.00
    7   87.98    4.31    5.94    6.84    3.16    0.00  206.56   98.27  144.87   21.63    0.00    0.00    0.00    0.00    2.83     0.01    0.00    0.00    0.00
    8  118.43   10.46    9.69    6.90    9.83    0.00  202.52   92.81  128.70   30.23    0.01    0.00    0.00    0.00    1.65     0.02    0.01    0.00    0.00
    9   98.07    5.71    7.97    6.51    6.57    0.00  215.74   65.57  100.51   23.95    0.00    0.01    0.00    0.05    2.36     0.01    0.01    0.00    0.00
   10  147.84   21.11   14.74   11.73   23.30    0.00  236.19   66.41   95.35   52.52    0.03    0.01    0.01    0.19    0.65     0.04    0.05    0.01    0.00
   11  152.84   16.78   20.39   18.32   42.30    0.00  264.12   41.93   52.41   62.54    0.02    0.01    0.01    0.33    0.10     0.02    0.04    0.01    0.00
   12   79.90    6.05   11.90   15.50   24.63    0.00  271.32   29.72   38.76   41.82    0.00    0.00    0.01    0.21    0.09     0.01    0.01    0.00    0.00

 1995 1419.54  158.64  150.16  163.99  266.64    0.00  271.32  824.41 1200.93  559.40    0.22    0.22    0.23    4.08   33.98     0.44    0.36    0.06    0.00
1
    SWAT Jun 11 2014    VER 2012/Rev 627                                            

    General Input/Output section (file.cio):                                        
    11/15/2017 12:00:00 AM ARCGIS-SWAT interface AV                                 
                                                                                    
Annual Summary for Watershed in year   12 of simulation

UNIT                                    PERCO    TILE                           WATER     SED     NO3     NO3     NO3     NO3        N       P       P
TIME     PREC    SURQ    LATQ     GWQ    LATE       Q     SW       ET     PET   YIELD   YIELD    SURQ    LATQ    PERC    CROP  ORGANIC SOLUBLE ORGANIC TILENO3
         (mm)    (mm)    (mm)    (mm)    (mm)    (mm)    (mm)    (mm)    (mm)    (mm)    (mm)   ------------------(kg nutrient/ha)-------------------- (kg/ha)
    1  192.71   35.96   26.97   28.85   79.01    0.00  287.73   27.75   35.66   99.72    0.07    0.03    0.04    0.94    0.00     0.09    0.08    0.01    0.00
    2   87.63   20.00   12.24   22.63   28.86    0.00  275.62   40.94   59.07   70.12    0.04    0.03    0.02    0.30    0.01     0.08    0.06    0.01    0.00
    3  159.63   19.36   18.83   22.74   46.21    0.00  283.29   63.76   85.57   74.39    0.02    0.03    0.04    0.92    0.01     0.06    0.05    0.01    0.00
    4  111.99   10.53   11.97   18.87   23.50    0.00  264.24   86.06  123.69   53.42    0.02    0.01    0.03    0.50    0.48     0.06    0.02    0.01    0.00
    5  135.61   13.13   12.23   14.90   12.52    0.00  250.11  112.43  164.90   48.19    0.01    0.07    0.03    0.24   13.12     0.04    0.02    0.01    0.00
    6  107.31    7.71   11.36   11.92   15.04    0.00  219.74  106.06  140.05   39.94    0.01    0.03    0.04    0.31   14.01     0.03    0.02    0.00    0.00
    7  136.96    8.23    7.83    8.33    2.48    0.00  238.66   98.73  140.61   29.43    0.01    0.00    0.01    0.00    2.62     0.01    0.01    0.00    0.00
    8  123.17   12.61   13.18    9.37   14.94    0.00  223.93   99.31  128.84   40.34    0.04    0.00    0.00    0.01    1.70     0.03    0.03    0.01    0.00
    9  178.81   17.90   13.20   10.51   26.02    0.00  264.47   75.68   95.17   43.91    0.01    0.02    0.00    0.21    2.51     0.03    0.03    0.01    0.00
   10   69.60    4.62    9.19   12.37   11.04    0.00  241.53   70.48   97.06   34.95    0.00    0.01    0.00    0.08    0.73     0.01    0.01    0.00    0.00
   11  144.25   15.27   17.59   15.93   38.51    0.00  270.95   39.87   48.05   55.53    0.01    0.01    0.00    0.36    0.13     0.02    0.03    0.01    0.00
   12  181.39   29.91   27.19   29.06   71.03    0.00  286.17   33.13   40.30   96.49    0.02    0.01    0.01    0.63    0.27     0.04    0.08    0.01    0.00

 1996 1629.07  195.23  181.77  205.46  369.15    0.00  286.17  854.21 1158.96  686.43    0.27    0.24    0.23    4.48   35.59     0.50    0.45    0.07    0.00
1
    SWAT Jun 11 2014    VER 2012/Rev 627                                            

    General Input/Output section (file.cio):                                        
    11/15/2017 12:00:00 AM ARCGIS-SWAT interface AV                                 
                                                                                    
Annual Summary for Watershed in year   13 of simulation

UNIT                                    PERCO    TILE                           WATER     SED     NO3     NO3     NO3     NO3        N       P       P
TIME     PREC    SURQ    LATQ     GWQ    LATE       Q     SW       ET     PET   YIELD   YIELD    SURQ    LATQ    PERC    CROP  ORGANIC SOLUBLE ORGANIC TILENO3
         (mm)    (mm)    (mm)    (mm)    (mm)    (mm)    (mm)    (mm)    (mm)    (mm)    (mm)   ------------------(kg nutrient/ha)-------------------- (kg/ha)
    1  142.11   22.83   22.76   29.79   62.74    0.00  286.92   30.37   40.23   87.47    0.03    0.05    0.03    0.68    0.00     0.05    0.06    0.01    0.00
    2  127.33   14.48   16.94   26.68   41.73    0.00  295.27   43.20   57.27   70.62    0.01    0.03    0.04    0.64    0.01     0.03    0.03    0.01    0.00
    3  212.37   44.95   31.84   37.29   72.07    0.00  280.36   77.08  102.25  133.53    0.10    0.03    0.07    1.21    0.04     0.20    0.14    0.02    0.00
    4  116.96    9.11   11.71   18.35   15.93    0.00  277.85   83.12  118.82   53.34    0.02    0.01    0.02    0.20    1.26     0.04    0.02    0.00    0.00
    5  145.42   14.55   13.91   16.67   25.68    0.00  277.97   90.06  129.45   55.31    0.03    0.05    0.02    0.48    7.40     0.08    0.03    0.01    0.00
    6  194.39   19.07   25.34   26.48   59.13    0.00  273.38   93.60  108.41   83.41    0.04    0.06    0.06    1.60   15.69     0.10    0.06    0.01    0.00
    7   71.02    6.41    9.07   17.04    8.55    0.00  215.94  109.99  158.93   44.08    0.01    0.02    0.02    0.08    5.18     0.03    0.02    0.00    0.00
    8   71.95    3.36    5.27   10.56    2.24    0.00  194.80   84.52  129.57   25.71    0.00    0.00    0.00    0.00    1.72     0.00    0.00    0.00    0.00
    9  129.65   10.25    7.84    7.79    5.52    0.00  231.18   67.45  108.90   28.89    0.01    0.01    0.00    0.05    1.47     0.01    0.02    0.00    0.00
   10  101.78    8.75   10.00    8.41   12.30    0.00  237.17   64.77   96.05   30.91    0.01    0.00    0.00    0.19    1.31     0.02    0.02    0.00    0.00
   11   76.87    3.02    9.14   11.66   13.16    0.00  249.48   39.68   48.10   28.13    0.00    0.00    0.00    0.12    0.20     0.01    0.00    0.00    0.00
   12   98.22    5.40   10.33   12.84   22.61    0.00  268.64   32.33   40.99   33.03    0.00    0.00    0.01    0.28    0.00     0.01    0.01    0.00    0.00

 1997 1488.08  162.17  174.16  223.58  341.64    0.00  268.64  816.17 1138.98  674.44    0.27    0.27    0.28    5.53   34.29     0.57    0.40    0.07    0.00
1
    SWAT Jun 11 2014    VER 2012/Rev 627                                            

    General Input/Output section (file.cio):                                        
    11/15/2017 12:00:00 AM ARCGIS-SWAT interface AV                                 
                                                                                    
Annual Summary for Watershed in year   14 of simulation

UNIT                                    PERCO    TILE                           WATER     SED     NO3     NO3     NO3     NO3        N       P       P
TIME     PREC    SURQ    LATQ     GWQ    LATE       Q     SW       ET     PET   YIELD   YIELD    SURQ    LATQ    PERC    CROP  ORGANIC SOLUBLE ORGANIC TILENO3
         (mm)    (mm)    (mm)    (mm)    (mm)    (mm)    (mm)    (mm)    (mm)    (mm)    (mm)   ------------------(kg nutrient/ha)-------------------- (kg/ha)
    1  176.12   28.03   29.14   28.09   72.98    0.00  282.33   32.30   41.30   92.72    0.04    0.03    0.05    0.97    0.00     0.08    0.08    0.01    0.00
    2  143.30   20.81   21.51   26.67   55.22    0.00  283.98   43.08   55.73   83.17    0.03    0.03    0.05    0.98    0.00     0.09    0.06    0.01    0.00
    3  136.48   14.85   21.69   30.17   52.63    0.00  264.60   66.73   93.46   84.21    0.03    0.02    0.06    1.15    0.02     0.07    0.04    0.01    0.00
    4  224.22   35.84   25.10   25.70   55.17    0.00  279.28   87.62  113.82   99.87    0.16    0.04    0.05    1.21    2.11     0.32    0.09    0.02    0.00
    5  116.26   13.22   17.20   21.52   23.72    0.00  230.78  115.25  173.92   70.49    0.03    0.06    0.03    0.45   13.50     0.14    0.04    0.01    0.00
    6  180.72   23.48   17.02   19.23   24.68    0.00  237.39  108.42  137.39   70.95    0.05    0.05    0.06    0.84   13.46     0.13    0.07    0.01    0.00
    7  142.43   14.20    9.38   12.87   11.76    0.00  245.92   96.76  131.80   43.70    0.01    0.01    0.01    0.05    2.23     0.04    0.03    0.01    0.00
    8   75.40    5.15    9.33   11.96    7.79    0.00  207.97   95.79  136.42   34.99    0.00    0.00    0.00    0.01    2.07     0.01    0.02    0.00    0.00
    9   42.02    2.65    3.03    7.82    0.53    0.00  186.20   60.10  125.86   17.29    0.00    0.01    0.00    0.00    1.49     0.00    0.00    0.00    0.00
   10   53.44    3.12    4.28    6.60    1.39    0.00  181.07   51.32  101.54   16.67    0.00    0.00    0.00    0.02    0.89     0.00    0.00    0.00    0.00
   11   69.18    2.90    4.69    5.73    3.40    0.00  201.97   36.76   63.18   15.05    0.00    0.00    0.00    0.03    0.14     0.00    0.00    0.00    0.00
   12  183.27   18.73   19.53   12.99   39.56    0.00  271.32   27.09   38.94   53.08    0.03    0.01    0.02    0.87    0.14     0.05    0.05    0.01    0.00

 1998 1542.83  182.97  181.91  209.34  348.85    0.00  271.32  821.22 1213.37  682.18    0.40    0.27    0.34    6.60   36.06     0.95    0.48    0.08    0.00
1
    SWAT Jun 11 2014    VER 2012/Rev 627                                            

    General Input/Output section (file.cio):                                        
    11/15/2017 12:00:00 AM ARCGIS-SWAT interface AV                                 
                                                                                    
Annual Summary for Watershed in year   15 of simulation

UNIT                                    PERCO    TILE                           WATER     SED     NO3     NO3     NO3     NO3        N       P       P
TIME     PREC    SURQ    LATQ     GWQ    LATE       Q     SW       ET     PET   YIELD   YIELD    SURQ    LATQ    PERC    CROP  ORGANIC SOLUBLE ORGANIC TILENO3
         (mm)    (mm)    (mm)    (mm)    (mm)    (mm)    (mm)    (mm)    (mm)    (mm)    (mm)   ------------------(kg nutrient/ha)-------------------- (kg/ha)
    1  232.59   52.39   30.37   32.38   89.03    0.00  289.80   35.58   44.58  119.74    0.10    0.04    0.05    1.75    0.00     0.26    0.15    0.02    0.00
    2  103.19    9.30   16.94   27.55   32.92    0.00  291.21   44.55   56.55   68.96    0.02    0.02    0.03    0.50    0.00     0.04    0.03    0.00    0.00
    3  118.49   12.38   18.38   27.50   42.21    0.00  270.42   67.63   88.14   74.04    0.03    0.02    0.04    0.79    0.00     0.08    0.04    0.01    0.00
    4  101.91    6.27    7.47   14.67    7.04    0.00  261.78   90.20  139.08   38.40    0.01    0.03    0.01    0.12    3.75     0.02    0.01    0.00    0.00
    5  121.61   13.15   12.64   14.27   19.66    0.00  226.84  112.73  159.90   48.35    0.03    0.06    0.02    0.41   15.79     0.09    0.04    0.01    0.00
    6  161.08   11.48   10.24   10.02   13.01    0.00  260.00   88.79  129.72   36.07    0.02    0.02    0.01    0.15   10.22     0.03    0.01    0.01    0.00
    7  111.80   11.20   15.42   13.40   19.86    0.00  213.20  116.91  154.53   47.27    0.06    0.00    0.01    0.02    2.37     0.05    0.02    0.01    0.00
    8   31.90    1.74    3.16    8.51    1.38    0.00  167.23   76.20  143.25   19.54    0.00    0.00    0.00    0.00    1.81     0.00    0.00    0.00    0.00
    9   40.97    1.73    1.98    6.14    0.60    0.00  159.36   46.30  113.97   13.28    0.00    0.00    0.00    0.00    1.87     0.00    0.00    0.00    0.00
   10   62.60    3.48    5.06    5.22    1.08    0.00  160.32   53.17   98.78   16.45    0.00    0.00    0.00    0.00    0.62     0.00    0.00    0.00    0.00
   11  104.95    7.74    7.21    4.75    3.15    0.00  201.37   43.76   75.49   21.07    0.01    0.01    0.00    0.04    0.27     0.01    0.01    0.00    0.00
   12   70.16    3.71    7.52    5.65    6.61    0.00  221.34   32.08   44.59   19.71    0.00    0.00    0.01    0.14    0.01     0.01    0.01    0.00    0.00

 1999 1261.24  134.57  136.37  170.07  236.56    0.00  221.34  807.91 1248.57  522.87    0.28    0.19    0.19    3.94   36.72     0.61    0.33    0.06    0.00
1
    SWAT Jun 11 2014    VER 2012/Rev 627                                            

    General Input/Output section (file.cio):                                        
    11/15/2017 12:00:00 AM ARCGIS-SWAT interface AV                                 
                                                                                    
Annual Summary for Watershed in year   16 of simulation

UNIT                                    PERCO    TILE                           WATER     SED     NO3     NO3     NO3     NO3        N       P       P
TIME     PREC    SURQ    LATQ     GWQ    LATE       Q     SW       ET     PET   YIELD   YIELD    SURQ    LATQ    PERC    CROP  ORGANIC SOLUBLE ORGANIC TILENO3
         (mm)    (mm)    (mm)    (mm)    (mm)    (mm)    (mm)    (mm)    (mm)    (mm)    (mm)   ------------------(kg nutrient/ha)-------------------- (kg/ha)
    1  121.03    8.35   10.44    8.67   19.26    0.00  255.55   27.59   39.74   30.41    0.02    0.01    0.02    0.43    0.00     0.03    0.01    0.00    0.00
    2   89.78   11.77   11.28   11.67   24.95    0.00  263.86   50.14   68.66   39.06    0.02    0.01    0.03    0.62    0.01     0.04    0.03    0.00    0.00
    3  119.75   12.63   12.13   13.92   24.40    0.00  260.43   73.50  103.21   45.43    0.04    0.01    0.03    0.81    0.03     0.10    0.04    0.01    0.00
    4  184.01   21.49   20.59   20.99   45.87    0.00  265.24   88.44  113.72   72.66    0.09    0.07    0.05    1.43    2.21     0.23    0.06    0.01    0.00
    5   90.81    6.36    7.38   12.04    6.01    0.00  235.29  102.73  169.36   34.38    0.01    0.07    0.03    0.15   14.77     0.03    0.01    0.00    0.00
    6  125.63    6.90    8.75    8.11    8.28    0.00  241.93   95.26  135.26   28.88    0.01    0.01    0.02    0.11   12.52     0.01    0.01    0.00    0.00
    7   81.50    4.76    7.86    7.45    5.23    0.00  204.37  104.99  151.64   25.09    0.00    0.00    0.01    0.00    2.63     0.01    0.01    0.00    0.00
    8   82.83    5.50    7.39    5.48    5.52    0.00  181.82   89.33  132.33   22.43    0.01    0.00    0.00    0.00    1.57     0.01    0.01    0.00    0.00
    9   93.33    4.68    5.73    4.22    3.98    0.00  201.41   58.75   98.51   17.93    0.01    0.00    0.00    0.01    2.43     0.01    0.01    0.00    0.00
   10    4.19    0.11    2.35    4.22    1.32    0.00  153.33   52.50  114.02    9.50    0.00    0.00    0.00    0.00    0.66     0.00    0.00    0.00    0.00
   11  148.59   10.20   12.13    6.34   14.12    0.00  226.68   33.97   54.72   30.72    0.02    0.01    0.01    0.28    0.14     0.03    0.02    0.01    0.00
   12   88.67    8.88   10.08   10.31   17.38    0.00  248.70   26.94   37.89   32.49    0.01    0.00    0.01    0.33    0.00     0.03    0.02    0.00    0.00

 2000 1230.13  101.62  116.12  113.43  176.32    0.00  248.70  804.12 1219.05  388.97    0.22    0.21    0.21    4.17   36.98     0.52    0.22    0.06    0.00
1
    SWAT Jun 11 2014    VER 2012/Rev 627                                            

    General Input/Output section (file.cio):                                        
    11/15/2017 12:00:00 AM ARCGIS-SWAT interface AV                                 
                                                                                    
Annual Summary for Watershed in year   17 of simulation

UNIT                                    PERCO    TILE                           WATER     SED     NO3     NO3     NO3     NO3        N       P       P
TIME     PREC    SURQ    LATQ     GWQ    LATE       Q     SW       ET     PET   YIELD   YIELD    SURQ    LATQ    PERC    CROP  ORGANIC SOLUBLE ORGANIC TILENO3
         (mm)    (mm)    (mm)    (mm)    (mm)    (mm)    (mm)    (mm)    (mm)    (mm)    (mm)   ------------------(kg nutrient/ha)-------------------- (kg/ha)
    1  112.09   15.37   12.90   12.98   34.60    0.00  265.23   32.00   43.37   45.08    0.04    0.01    0.02    0.62    0.00     0.06    0.04    0.01    0.00
    2  159.70   22.65   22.06   22.31   58.80    0.00  274.76   40.89   55.11   72.96    0.04    0.02    0.05    1.33    0.00     0.09    0.07    0.01    0.00
    3  111.79   10.62   15.56   23.17   29.13    0.00  272.20   61.34   83.52   61.58    0.03    0.02    0.04    0.66    0.00     0.07    0.03    0.01    0.00
    4   85.04    6.84   10.24   15.24   17.03    0.00  234.28   91.34  145.97   42.55    0.01    0.01    0.03    0.41    2.09     0.04    0.02    0.00    0.00
    5  125.68    8.55    7.45   10.26    7.56    0.00  241.19   94.45  152.73   32.32    0.01    0.08    0.02    0.23   15.67     0.03    0.01    0.00    0.00
    6  142.73    8.51   12.15   11.72   18.57    0.00  244.71   99.92  124.99   37.93    0.02    0.02    0.03    0.57   12.53     0.04    0.01    0.01    0.00
    7  152.82   14.69   13.68   11.38   16.64    0.00  248.54  102.83  132.75   42.99    0.04    0.00    0.01    0.07    2.46     0.05    0.02    0.01    0.00
    8  122.99   12.43   12.62   12.26   18.48    0.00  233.16   97.42  123.92   44.71    0.02    0.01    0.00    0.05    1.61     0.04    0.04    0.01    0.00
    9  103.98    7.03    9.53   10.07   11.92    0.00  231.54   77.73  102.28   32.44    0.01    0.00    0.00    0.09    2.52     0.01    0.01    0.00    0.00
   10   85.09   11.84    7.81    9.21   12.45    0.00  221.39   62.89   94.59   33.14    0.01    0.00    0.00    0.13    0.51     0.02    0.03    0.00    0.00
   11  104.30   20.10    5.13    6.82   13.31    0.00  242.88   38.36   75.04   25.76    0.01    0.00    0.00    0.26    0.26     0.03    0.02    0.00    0.00
   12  132.65   15.92   19.79   23.42   45.42    0.00  259.12   34.92   46.51   73.94    0.01    0.01    0.01    0.58    0.09     0.06    0.06    0.01    0.00

 2001 1438.88  154.57  148.93  168.84  283.92    0.00  259.12  834.10 1180.79  545.40    0.25    0.19    0.22    4.99   37.74     0.53    0.36    0.06    0.00
1
    SWAT Jun 11 2014    VER 2012/Rev 627                                            

    General Input/Output section (file.cio):                                        
    11/15/2017 12:00:00 AM ARCGIS-SWAT interface AV                                 
                                                                                    
Annual Summary for Watershed in year   18 of simulation

UNIT                                    PERCO    TILE                           WATER     SED     NO3     NO3     NO3     NO3        N       P       P
TIME     PREC    SURQ    LATQ     GWQ    LATE       Q     SW       ET     PET   YIELD   YIELD    SURQ    LATQ    PERC    CROP  ORGANIC SOLUBLE ORGANIC TILENO3
         (mm)    (mm)    (mm)    (mm)    (mm)    (mm)    (mm)    (mm)    (mm)    (mm)    (mm)   ------------------(kg nutrient/ha)-------------------- (kg/ha)
    1  179.09   37.46   23.01   21.35   62.29    0.00  274.18   34.19   47.10   85.90    0.13    0.04    0.04    1.01    0.00     0.11    0.12    0.01    0.00
    2   52.16    3.55    9.83   21.08   13.44    0.00  262.55   41.59   59.29   47.50    0.00    0.01    0.02    0.21    0.00     0.01    0.03    0.00    0.00
    3  205.36   35.63   18.33   18.74   50.35    0.00  287.71   67.23   91.50   76.51    0.11    0.02    0.06    1.37    0.03     0.17    0.11    0.01    0.00
    4   57.74    4.37   10.53   18.23   10.98    0.00  234.16   92.68  151.62   48.02    0.01    0.03    0.03    0.24    3.86     0.04    0.03    0.00    0.00
    5  145.51   13.70   12.78   14.31   17.30    0.00  223.33  112.39  153.75   48.71    0.02    0.06    0.03    0.38   14.72     0.06    0.03    0.01    0.00
    6   69.15    2.87    3.90    8.02    1.10    0.00  203.32   83.63  137.70   19.84    0.00    0.03    0.01    0.00   11.27     0.00    0.00    0.00    0.00
    7  110.65    5.60    7.20    6.24    3.66    0.00  197.58  100.80  137.57   22.19    0.01    0.00    0.00    0.00    2.37     0.01    0.00    0.00    0.00
    8   77.90    3.09    5.23    4.84    0.73    0.00  184.62   83.62  132.94   15.62    0.00    0.00    0.00    0.00    1.83     0.00    0.00    0.00    0.00
    9  183.75   20.04   13.93    5.02   18.08    0.00  245.00   63.85  103.71   36.97    0.02    0.01    0.01    0.22    2.36     0.03    0.02    0.01    0.00
   10  124.25    9.13   15.47   10.78   21.89    0.00  262.35   61.65   79.04   42.02    0.01    0.01    0.01    0.25    0.73     0.02    0.02    0.00    0.00
   11  128.01   14.04   22.34   18.73   45.08    0.00  266.83   41.35   51.96   61.91    0.02    0.01    0.02    0.55    0.09     0.03    0.04    0.00    0.00
   12  160.80   21.19   24.18   25.97   64.12    0.00  282.17   30.82   39.00   81.12    0.03    0.01    0.03    0.94    0.03     0.05    0.05    0.01    0.00

 2002 1494.37  170.67  166.74  173.33  308.99    0.00  282.17  813.80 1185.18  586.30    0.36    0.24    0.27    5.19   37.29     0.54    0.45    0.07    0.00
1
    SWAT Jun 11 2014    VER 2012/Rev 627                                            

    General Input/Output section (file.cio):                                        
    11/15/2017 12:00:00 AM ARCGIS-SWAT interface AV                                 
                                                                                    
Annual Summary for Watershed in year   19 of simulation

UNIT                                    PERCO    TILE                           WATER     SED     NO3     NO3     NO3     NO3        N       P       P
TIME     PREC    SURQ    LATQ     GWQ    LATE       Q     SW       ET     PET   YIELD   YIELD    SURQ    LATQ    PERC    CROP  ORGANIC SOLUBLE ORGANIC TILENO3
         (mm)    (mm)    (mm)    (mm)    (mm)    (mm)    (mm)    (mm)    (mm)    (mm)    (mm)   ------------------(kg nutrient/ha)-------------------- (kg/ha)
    1   68.96   10.75    8.27   19.96   16.86    0.00  289.92   27.39   37.05   50.62    0.02    0.04    0.01    0.25    0.00     0.04    0.03    0.00    0.00
    2  236.53   53.57   31.44   29.61  100.66    0.00  297.34   30.46   37.56  122.58    0.15    0.04    0.07    2.04    0.00     0.27    0.16    0.02    0.00
    3   74.82    5.53   14.11   28.30   15.95    0.00  267.98   75.99  109.19   70.34    0.01    0.01    0.03    0.23    0.03     0.03    0.03    0.00    0.00
    4  148.96   17.45   16.49   16.88   26.31    0.00  259.52   96.84  139.02   63.00    0.05    0.03    0.04    0.59    1.96     0.10    0.04    0.01    0.00
    5  259.49   47.29   30.57   28.95   71.06    0.00  254.25  111.45  136.40  121.84    0.23    0.11    0.06    2.01   16.68     0.44    0.15    0.02    0.00
    6  138.00   11.97   14.10   18.04   15.72    0.00  247.12  105.29  129.93   57.44    0.02    0.05    0.04    0.24   10.73     0.05    0.03    0.01    0.00
    7  170.47   16.23   15.71   15.93   22.68    0.00  255.19  107.12  131.91   58.57    0.04    0.01    0.01    0.05    2.65     0.06    0.03    0.01    0.00
    8  135.12   13.85   15.53   13.83   21.99    0.00  242.91   97.30  119.94   53.73    0.02    0.01    0.00    0.00    1.59     0.04    0.03    0.01    0.00
    9  147.18   19.24   12.51   11.99   19.63    0.00  255.86   81.12  106.02   51.76    0.02    0.01    0.00    0.06    2.40     0.03    0.04    0.01    0.00
   10   43.09    2.04    4.81   10.39    3.30    0.00  226.91   65.09   98.19   25.19    0.00    0.00    0.00    0.01    0.63     0.00    0.01    0.00    0.00
   11  153.64   18.06   13.96   10.28   24.10    0.00  271.69   47.35   66.21   45.80    0.02    0.01    0.01    0.24    0.21     0.03    0.03    0.01    0.00
   12  101.60    8.91   16.61   18.19   36.48    0.00  279.91   30.84   38.04   52.50    0.01    0.01    0.02    0.38    0.01     0.01    0.02    0.00    0.00

 2003 1677.85  224.91  194.10  222.35  374.74    0.00  279.91  876.24 1149.46  773.38    0.58    0.33    0.30    6.10   36.87     1.12    0.58    0.09    0.00
1
    SWAT Jun 11 2014    VER 2012/Rev 627                                            

    General Input/Output section (file.cio):                                        
    11/15/2017 12:00:00 AM ARCGIS-SWAT interface AV                                 
                                                                                    
Annual Summary for Watershed in year   20 of simulation

UNIT                                    PERCO    TILE                           WATER     SED     NO3     NO3     NO3     NO3        N       P       P
TIME     PREC    SURQ    LATQ     GWQ    LATE       Q     SW       ET     PET   YIELD   YIELD    SURQ    LATQ    PERC    CROP  ORGANIC SOLUBLE ORGANIC TILENO3
         (mm)    (mm)    (mm)    (mm)    (mm)    (mm)    (mm)    (mm)    (mm)    (mm)    (mm)   ------------------(kg nutrient/ha)-------------------- (kg/ha)
    1   88.64    9.71   13.06   18.68   31.47    0.00  278.63   34.91   46.85   51.30    0.01    0.02    0.03    0.53    0.00     0.02    0.02    0.00    0.00
    2  136.06   28.29   18.95   25.96   50.68    0.00  275.77   39.30   51.67   84.62    0.05    0.02    0.05    1.12    0.00     0.10    0.10    0.01    0.00
    3  121.27   14.73   13.52   22.00   29.96    0.00  263.70   74.69  109.40   62.04    0.02    0.02    0.04    0.78    0.04     0.05    0.04    0.01    0.00
    4  110.57   11.17    9.53   14.23   15.43    0.00  254.01   83.79  130.42   42.65    0.01    0.02    0.03    0.45    2.39     0.05    0.03    0.01    0.00
    5  106.34    7.92    8.28   12.12    7.94    0.00  232.93  104.77  149.69   35.72    0.01    0.07    0.03    0.18   16.08     0.03    0.02    0.00    0.00
    6  197.73   18.97   17.09   10.03   24.89    0.00  266.01   99.74  122.00   50.35    0.04    0.03    0.03    0.29   11.42     0.07    0.04    0.01    0.00
    7  140.47    9.76   15.07   17.70   23.52    0.00  247.35  113.50  136.84   50.89    0.02    0.00    0.01    0.18    2.48     0.03    0.02    0.01    0.00
    8  114.58    6.38    9.22   10.84   10.85    0.00  245.85   90.17  116.71   33.13    0.01    0.01    0.00    0.04    1.69     0.01    0.01    0.00    0.00
    9  180.66   38.93   19.97   13.47   34.02    0.00  250.44   81.65  106.70   76.40    0.07    0.02    0.01    0.28    2.81     0.09    0.09    0.01    0.00
   10  115.29   11.54   11.08   13.31   18.14    0.00  262.74   61.38   86.79   46.83    0.01    0.01    0.01    0.24    0.83     0.02    0.04    0.00    0.00
   11  166.74   21.34   20.26   18.22   49.33    0.00  280.84   52.36   66.22   66.96    0.03    0.01    0.01    0.72    0.26     0.04    0.04    0.01    0.00
   12  195.19   40.78   33.44   43.15   87.01    0.00  278.93   33.45   43.88  133.71    0.05    0.01    0.02    0.91    0.04     0.07    0.12    0.01    0.00

 2004 1673.55  219.53  189.47  219.71  383.26    0.00  278.93  869.72 1167.16  734.61    0.33    0.24    0.27    5.73   38.04     0.57    0.56    0.07    0.00
1
    SWAT Jun 11 2014    VER 2012/Rev 627                                            

    General Input/Output section (file.cio):                                        
    11/15/2017 12:00:00 AM ARCGIS-SWAT interface AV                                 
                                                                                    
Annual Summary for Watershed in year   21 of simulation

UNIT                                    PERCO    TILE                           WATER     SED     NO3     NO3     NO3     NO3        N       P       P
TIME     PREC    SURQ    LATQ     GWQ    LATE       Q     SW       ET     PET   YIELD   YIELD    SURQ    LATQ    PERC    CROP  ORGANIC SOLUBLE ORGANIC TILENO3
         (mm)    (mm)    (mm)    (mm)    (mm)    (mm)    (mm)    (mm)    (mm)    (mm)    (mm)   ------------------(kg nutrient/ha)-------------------- (kg/ha)
    1  102.00   12.77   14.67   31.11   35.61    0.00  282.35   34.69   49.73   74.22    0.01    0.03    0.03    0.50    0.00     0.02    0.03    0.00    0.00
    2  115.80   10.91   14.79   21.20   41.40    0.00  288.79   39.75   50.47   57.66    0.01    0.02    0.05    0.88    0.00     0.03    0.02    0.00    0.00
    3   97.59    9.26   11.62   19.39   18.77    0.00  280.95   67.27   89.86   51.54    0.01    0.02    0.04    0.50    0.02     0.03    0.02    0.00    0.00
    4  151.60   17.56   15.49   19.33   32.41    0.00  274.72   90.91  128.19   61.69    0.03    0.06    0.05    0.96    3.06     0.09    0.04    0.01    0.00
    5   53.52    4.04    6.36   12.79    4.82    0.00  215.10  103.01  172.65   33.82    0.01    0.05    0.02    0.09   11.11     0.03    0.01    0.00    0.00
    6  137.48    9.01   10.04    9.41   10.78    0.00  227.57   94.67  125.46   34.13    0.01    0.05    0.01    0.05   12.78     0.03    0.01    0.00    0.00
    7  171.80   16.00   16.21   11.41   22.78    0.00  239.34  104.17  126.25   49.67    0.04    0.01    0.01    0.03    2.75     0.07    0.02    0.01    0.00
    8  138.59   12.34    9.11    9.26    9.83    0.00  253.53   91.21  125.97   35.74    0.01    0.01    0.00    0.02    1.64     0.02    0.02    0.00    0.00
    9   64.47    4.32    7.15    7.69    5.68    0.00  224.65   80.11  121.48   27.45    0.00    0.01    0.00    0.05    2.76     0.01    0.01    0.00    0.00
   10   23.53    1.15    2.94    6.44    1.61    0.00  186.62   59.04  112.35   15.25    0.00    0.00    0.00    0.00    0.76     0.00    0.00    0.00    0.00
   11  109.09    6.36    6.48    5.28    4.11    0.00  238.24   37.03   71.98   20.48    0.01    0.01    0.00    0.10    0.27     0.01    0.00    0.00    0.00
   12  100.02    7.71   13.16   10.17   25.04    0.00  258.23   33.12   43.35   35.23    0.01    0.01    0.01    0.41    0.03     0.02    0.01    0.00    0.00

 2005 1265.49  111.43  128.02  163.48  212.82    0.00  258.23  834.99 1217.74  496.88    0.15    0.27    0.23    3.59   35.19     0.34    0.21    0.05    0.00
1
    SWAT Jun 11 2014    VER 2012/Rev 627                                            

    General Input/Output section (file.cio):                                        
    11/15/2017 12:00:00 AM ARCGIS-SWAT interface AV                                 
                                                                                    
Annual Summary for Watershed in year   22 of simulation

UNIT                                    PERCO    TILE                           WATER     SED     NO3     NO3     NO3     NO3        N       P       P
TIME     PREC    SURQ    LATQ     GWQ    LATE       Q     SW       ET     PET   YIELD   YIELD    SURQ    LATQ    PERC    CROP  ORGANIC SOLUBLE ORGANIC TILENO3
         (mm)    (mm)    (mm)    (mm)    (mm)    (mm)    (mm)    (mm)    (mm)    (mm)    (mm)   ------------------(kg nutrient/ha)-------------------- (kg/ha)
    1  160.45   21.72   21.17   18.84   54.44    0.00  279.07   36.61   48.62   66.83    0.03    0.02    0.04    1.05    0.00     0.06    0.06    0.01    0.00
    2   76.70    5.42   13.47   21.13   29.73    0.00  273.28   35.37   45.13   50.54    0.01    0.01    0.03    0.58    0.00     0.02    0.02    0.00    0.00
    3   71.53    5.87    6.56   13.82    8.25    0.00  252.68   73.02  113.30   35.19    0.01    0.01    0.02    0.16    0.02     0.02    0.01    0.00    0.00
    4  147.23   15.93   12.07   11.58   16.26    0.00  252.93  101.15  153.24   45.20    0.03    0.04    0.04    0.42    5.10     0.07    0.04    0.01    0.00
    5  111.28    6.05    9.32   11.17   12.43    0.00  228.12  110.06  145.57   33.70    0.01    0.03    0.03    0.33   13.08     0.03    0.01    0.00    0.00
    6   95.37    6.58    6.73    7.42    3.84    0.00  215.80   92.07  137.01   25.29    0.01    0.03    0.02    0.06   11.93     0.02    0.01    0.00    0.00
    7   98.18    5.33    6.54    5.85    2.89    0.00  200.96   99.64  142.64   21.73    0.00    0.00    0.01    0.01    2.99     0.01    0.01    0.00    0.00
    8  101.07    5.82    6.84    4.80    3.37    0.00  195.30   91.86  132.69   20.34    0.01    0.00    0.00    0.00    1.85     0.01    0.01    0.00    0.00
    9  139.54   15.32   12.34    6.04   14.46    0.00  222.36   68.29   98.43   36.34    0.04    0.01    0.00    0.04    2.17     0.04    0.02    0.01    0.00
   10  117.28    9.12   12.44    6.47   16.15    0.00  238.85   61.79   88.78   32.46    0.01    0.01    0.01    0.12    0.36     0.01    0.01    0.00    0.00
   11  105.90    9.90   14.40   11.42   24.93    0.00  248.96   46.39   59.88   41.97    0.01    0.00    0.01    0.36    0.21     0.02    0.02    0.00    0.00
   12   82.07    5.95    6.85    9.63   12.80    0.00  268.35   34.84   48.79   27.61    0.01    0.01    0.01    0.24    0.09     0.01    0.01    0.00    0.00

 2006 1306.61  113.02  128.71  128.17  199.54    0.00  268.35  851.09 1214.07  437.19    0.15    0.18    0.20    3.37   37.79     0.31    0.24    0.05    0.00
1
    SWAT Jun 11 2014    VER 2012/Rev 627                                            

    General Input/Output section (file.cio):                                        
    11/15/2017 12:00:00 AM ARCGIS-SWAT interface AV                                 
                                                                                    
Annual Summary for Watershed in year   23 of simulation

UNIT                                    PERCO    TILE                           WATER     SED     NO3     NO3     NO3     NO3        N       P       P
TIME     PREC    SURQ    LATQ     GWQ    LATE       Q     SW       ET     PET   YIELD   YIELD    SURQ    LATQ    PERC    CROP  ORGANIC SOLUBLE ORGANIC TILENO3
         (mm)    (mm)    (mm)    (mm)    (mm)    (mm)    (mm)    (mm)    (mm)    (mm)    (mm)   ------------------(kg nutrient/ha)-------------------- (kg/ha)
    1   98.91   10.56   16.79   19.68   40.71    0.00  266.83   31.48   42.06   56.28    0.01    0.02    0.03    0.67    0.00     0.02    0.03    0.00    0.00
    2   51.91    6.01    4.16   10.34    7.76    0.00  263.54   38.13   55.43   27.11    0.01    0.03    0.01    0.14    0.00     0.02    0.01    0.00    0.00
    3   64.36    6.73    7.67   10.29   13.32    0.00  230.82   70.97  131.93   31.29    0.01    0.02    0.02    0.26    0.06     0.02    0.02    0.00    0.00
    4  100.45    8.30    7.49    7.52    7.59    0.00  227.07   80.90  130.80   28.20    0.01    0.01    0.02    0.20    2.86     0.03    0.02    0.00    0.00
    5   37.74    1.94    3.27    5.82    2.12    0.00  172.03   89.35  185.69   15.37    0.00    0.04    0.01    0.02   14.98     0.01    0.00    0.00    0.00
    6   81.75    3.66    3.41    4.12    0.52    0.00  170.62   76.63  141.99   13.40    0.00    0.04    0.01    0.01   10.51     0.01    0.00    0.00    0.00
    7  130.91    7.03    8.30    3.63    3.07    0.00  191.09   91.32  129.70   20.40    0.01    0.01    0.01    0.00    2.78     0.01    0.01    0.00    0.00
    8   32.45    1.52    3.83    3.53    1.76    0.00  140.57   80.78  150.34   11.03    0.00    0.00    0.00    0.00    1.95     0.00    0.00    0.00    0.00
    9   71.07    3.52    5.04    2.87    0.85    0.00  141.23   62.20  111.25   12.83    0.00    0.00    0.00    0.00    2.16     0.00    0.00    0.00    0.00
   10  103.00    6.29    6.75    2.77    1.33    0.00  181.46   46.00   99.18   16.60    0.01    0.01    0.01    0.01    0.96     0.01    0.01    0.00    0.00
   11   84.30    5.01    7.29    3.31    5.42    0.00  206.04   41.32   62.13   16.89    0.01    0.00    0.01    0.06    0.10     0.01    0.01    0.00    0.00
   12  108.88    7.30   10.26    6.18   15.33    0.00  245.30   33.07   42.41   25.06    0.01    0.01    0.01    0.35    0.17     0.02    0.01    0.00    0.00

 2007  965.74   67.86   84.25   80.05   99.78    0.00  245.30  742.15 1282.91  274.48    0.07    0.18    0.15    1.72   36.53     0.15    0.11    0.04    0.00
1
    SWAT Jun 11 2014    VER 2012/Rev 627                                            

    General Input/Output section (file.cio):                                        
    11/15/2017 12:00:00 AM ARCGIS-SWAT interface AV                                 
                                                                                    
Annual Summary for Watershed in year   24 of simulation

UNIT                                    PERCO    TILE                           WATER     SED     NO3     NO3     NO3     NO3        N       P       P
TIME     PREC    SURQ    LATQ     GWQ    LATE       Q     SW       ET     PET   YIELD   YIELD    SURQ    LATQ    PERC    CROP  ORGANIC SOLUBLE ORGANIC TILENO3
         (mm)    (mm)    (mm)    (mm)    (mm)    (mm)    (mm)    (mm)    (mm)    (mm)    (mm)   ------------------(kg nutrient/ha)-------------------- (kg/ha)
    1   79.19    7.41   11.31    8.41   19.31    0.00  256.34   30.60   39.65   30.88    0.01    0.01    0.03    0.40    0.00     0.04    0.02    0.00    0.00
    2  122.54   11.68   15.60   15.08   37.83    0.00  267.26   43.70   55.09   49.14    0.03    0.01    0.04    1.27    0.00     0.08    0.03    0.01    0.00
    3  159.72   21.64   19.82   17.91   45.43    0.00  263.77   74.02   99.49   68.40    0.06    0.02    0.05    1.38    0.01     0.19    0.05    0.01    0.00
    4  129.43   15.25   13.21   18.46   26.70    0.00  249.82   88.40  131.40   58.04    0.05    0.01    0.03    0.82    2.02     0.19    0.04    0.01    0.00
    5  126.25    9.70    9.23   10.24   12.46    0.00  239.17  104.79  149.28   36.51    0.02    0.07    0.01    0.32   11.75     0.05    0.02    0.01    0.00
    6   63.84    3.44    5.75    7.50    2.75    0.00  200.20   95.43  149.71   21.74    0.00    0.02    0.02    0.02   14.87     0.01    0.01    0.00    0.00
    7  107.55    5.45    6.81    5.50    1.95    0.00  195.76   98.81  142.62   20.52    0.01    0.00    0.01    0.01    3.19     0.01    0.00    0.00    0.00
    8  128.08   10.21    8.22    4.68    5.30    0.00  218.62   80.30  126.54   24.40    0.01    0.00    0.00    0.02    1.46     0.02    0.01    0.00    0.00
    9   37.31    1.62    5.20    4.91    2.20    0.00  180.73   71.06  110.11   14.91    0.00    0.00    0.00    0.00    2.69     0.00    0.00    0.00    0.00
   10   73.70    4.37    4.29    3.75    1.45    0.00  191.98   52.32   93.72   14.21    0.00    0.00    0.00    0.03    0.52     0.01    0.00    0.00    0.00
   11   69.46    3.19    5.07    3.82    4.10    0.00  211.84   36.68   57.31   13.45    0.00    0.00    0.01    0.09    0.16     0.00    0.00    0.00    0.00
   12  225.19   27.06   29.35   18.46   70.27    0.00  273.38   27.14   32.58   77.97    0.05    0.01    0.03    1.01    0.15     0.06    0.07    0.01    0.00

 2008 1322.26  121.03  133.85  118.72  229.75    0.00  273.38  803.27 1187.49  430.17    0.24    0.17    0.23    5.38   36.84     0.65    0.25    0.06    0.00
1
    SWAT Jun 11 2014    VER 2012/Rev 627                                            

    General Input/Output section (file.cio):                                        
    11/15/2017 12:00:00 AM ARCGIS-SWAT interface AV                                 
                                                                                    
Annual Summary for Watershed in year   25 of simulation

UNIT                                    PERCO    TILE                           WATER     SED     NO3     NO3     NO3     NO3        N       P       P
TIME     PREC    SURQ    LATQ     GWQ    LATE       Q     SW       ET     PET   YIELD   YIELD    SURQ    LATQ    PERC    CROP  ORGANIC SOLUBLE ORGANIC TILENO3
         (mm)    (mm)    (mm)    (mm)    (mm)    (mm)    (mm)    (mm)    (mm)    (mm)    (mm)   ------------------(kg nutrient/ha)-------------------- (kg/ha)
    1  127.56   23.14   23.47   27.73   47.60    0.00  274.13   28.96   39.72   86.26    0.07    0.02    0.04    0.59    0.00     0.08    0.06    0.01    0.00
    2   73.44    8.14    7.43   13.71   14.51    0.00  281.01   39.66   53.02   39.25    0.01    0.02    0.02    0.28    0.00     0.03    0.02    0.00    0.00
    3  126.31   12.11   15.50   16.40   35.83    0.00  274.71   67.62   96.31   53.15    0.02    0.01    0.04    0.88    0.03     0.06    0.03    0.01    0.00
    4  110.68   10.65   13.21   18.25   25.65    0.00  245.04   92.93  130.64   52.87    0.02    0.01    0.03    0.67    2.34     0.07    0.03    0.01    0.00
    5  221.85   28.25   23.94   25.30   54.22    0.00  257.91   98.81  120.23   89.43    0.06    0.13    0.05    1.80   15.65     0.19    0.10    0.02    0.00
    6   94.75    7.52    9.66   12.19    7.77    0.00  219.49  111.38  150.29   39.60    0.01    0.04    0.03    0.14   11.47     0.03    0.02    0.00    0.00
    7  169.45   12.41   10.58    8.60    7.23    0.00  253.55  102.40  133.01   37.03    0.01    0.01    0.01    0.00    2.54     0.03    0.02    0.01    0.00
    8  107.37    8.69   12.55    9.20   14.99    0.00  230.98   96.72  121.67   37.51    0.02    0.01    0.00    0.01    1.74     0.03    0.02    0.00    0.00
    9  213.79   28.29   22.20   13.24   51.70    0.00  267.99   67.11   85.18   65.47    0.06    0.01    0.01    0.41    2.32     0.05    0.07    0.01    0.00
   10  177.62   17.60   24.45   27.41   57.22    0.00  285.02   58.77   69.48   81.09    0.01    0.01    0.01    0.45    0.73     0.03    0.04    0.01    0.00
   11   82.48   12.04   15.23   21.38   24.04    0.00  265.50   54.53   73.16   63.92    0.03    0.00    0.00    0.07    0.10     0.03    0.04    0.00    0.00
   12  181.28   31.30   26.75   27.23   66.91    0.00  286.81   29.79   36.79   98.20    0.04    0.01    0.01    0.48    0.02     0.06    0.07    0.01    0.00

 2009 1686.60  200.15  204.97  220.65  407.67    0.00  286.81  848.68 1109.50  743.78    0.37    0.28    0.25    5.78   36.95     0.67    0.51    0.08    0.00
1
    SWAT Jun 11 2014    VER 2012/Rev 627                                            

    General Input/Output section (file.cio):                                        
    11/15/2017 12:00:00 AM ARCGIS-SWAT interface AV                                 
                                                                                    
Annual Summary for Watershed in year   26 of simulation

UNIT                                    PERCO    TILE                           WATER     SED     NO3     NO3     NO3     NO3        N       P       P
TIME     PREC    SURQ    LATQ     GWQ    LATE       Q     SW       ET     PET   YIELD   YIELD    SURQ    LATQ    PERC    CROP  ORGANIC SOLUBLE ORGANIC TILENO3
         (mm)    (mm)    (mm)    (mm)    (mm)    (mm)    (mm)    (mm)    (mm)    (mm)    (mm)   ------------------(kg nutrient/ha)-------------------- (kg/ha)
    1  147.90   22.88   19.81   26.30   56.30    0.00  287.18   25.59   34.80   84.34    0.04    0.03    0.03    0.63    0.00     0.06    0.06    0.01    0.00
    2   91.86   17.61   19.43   32.40   48.99    0.00  280.37   33.68   45.52   87.14    0.03    0.02    0.04    0.60    0.00     0.06    0.05    0.01    0.00
    3  105.70    8.36    9.92   21.19   22.92    0.00  279.95   64.66   87.76   54.36    0.01    0.02    0.03    0.44    0.00     0.02    0.02    0.00    0.00
    4   82.86    7.11    6.82   14.89    8.19    0.00  253.53   89.01  160.95   39.47    0.01    0.01    0.02    0.19    0.59     0.03    0.01    0.00    0.00
    5  183.43   39.52   14.85   16.85   24.77    0.00  244.59  111.45  154.64   80.11    0.08    0.11    0.04    0.66   16.09     0.28    0.13    0.02    0.00
    6   86.66    4.52    7.10   10.05    4.23    0.00  214.66  103.62  137.69   28.29    0.01    0.02    0.02    0.09   13.12     0.01    0.01    0.00    0.00
    7  109.52    5.79    7.41    7.18    1.63    0.00  208.53  101.92  146.55   24.40    0.00    0.00    0.01    0.00    2.64     0.01    0.00    0.00    0.00
    8  109.14    8.69    9.74    6.61    5.09    0.00  200.53   95.13  135.38   27.48    0.01    0.00    0.00    0.01    2.27     0.01    0.02    0.00    0.00
    9   78.52    4.64    5.03    5.38    2.21    0.00  201.21   66.89  116.67   17.76    0.01    0.01    0.00    0.01    2.31     0.01    0.01    0.00    0.00
   10   83.89    6.03    6.60    5.26    6.41    0.00  215.63   50.23   95.36   19.98    0.01    0.00    0.01    0.13    0.63     0.02    0.01    0.00    0.00
   11  133.73   12.52   10.84    6.92   19.03    0.00  261.17   40.18   57.81   29.85    0.02    0.01    0.01    0.47    0.08     0.03    0.02    0.00    0.00
   12   92.96   17.09   14.21   13.90   24.75    0.00  273.15   26.17   33.99   51.25    0.03    0.01    0.02    0.30    0.01     0.04    0.05    0.00    0.00

 2010 1306.17  154.76  131.75  166.93  224.52    0.00  273.15  808.55 1207.11  544.44    0.25    0.24    0.22    3.52   37.75     0.57    0.39    0.07    0.00
1
    SWAT Jun 11 2014    VER 2012/Rev 627                                            

    General Input/Output section (file.cio):                                        
    11/15/2017 12:00:00 AM ARCGIS-SWAT interface AV                                 
                                                                                    
Annual Summary for Watershed in year   27 of simulation

UNIT                                    PERCO    TILE                           WATER     SED     NO3     NO3     NO3     NO3        N       P       P
TIME     PREC    SURQ    LATQ     GWQ    LATE       Q     SW       ET     PET   YIELD   YIELD    SURQ    LATQ    PERC    CROP  ORGANIC SOLUBLE ORGANIC TILENO3
         (mm)    (mm)    (mm)    (mm)    (mm)    (mm)    (mm)    (mm)    (mm)    (mm)    (mm)   ------------------(kg nutrient/ha)-------------------- (kg/ha)
    1   99.98   16.72   13.29   17.37   37.60    0.00  276.48   28.50   37.19   57.25    0.05    0.02    0.02    0.65    0.00     0.08    0.06    0.01    0.00
    2   96.46   13.90    9.47   14.01   22.76    0.00  277.94   46.21   66.61   43.08    0.02    0.01    0.02    0.51    0.01     0.05    0.03    0.00    0.00
    3  214.49   34.34   28.80   26.13   71.08    0.00  286.04   66.94   92.06  103.81    0.13    0.04    0.07    1.89    0.02     0.27    0.10    0.02    0.00
    4  241.39   52.18   26.00   25.48   65.97    0.00  275.44  101.86  135.45  111.48    0.18    0.15    0.06    2.36    3.25     0.49    0.13    0.03    0.00
    5   98.06   11.49   12.61   24.33   12.66    0.00  229.38  113.59  164.83   70.41    0.02    0.07    0.02    0.28   13.98     0.12    0.06    0.01    0.00
    6  151.14   10.96   10.27   11.78    9.02    0.00  251.72   96.47  146.31   40.85    0.02    0.02    0.02    0.09   10.45     0.03    0.02    0.01    0.00
    7   95.61    6.17    9.59   11.09    7.30    0.00  220.67  107.63  140.58   33.80    0.01    0.00    0.01    0.02    2.61     0.02    0.02    0.00    0.00
    8   59.81    3.53    5.63    8.25    2.91    0.00  184.76   87.29  140.54   22.19    0.00    0.00    0.00    0.01    1.87     0.00    0.01    0.00    0.00
    9  179.84   21.46   15.23   10.09   17.44    0.00  237.12   69.92   97.09   50.12    0.07    0.01    0.01    0.36    2.20     0.04    0.05    0.01    0.00
   10   66.47    3.88    5.45    7.82    4.03    0.00  228.00   63.44  104.01   21.01    0.00    0.00    0.01    0.06    0.61     0.01    0.01    0.00    0.00
   11  177.20   22.01   16.23    8.90   33.41    0.00  281.06   43.38   61.75   47.82    0.04    0.01    0.02    0.68    0.20     0.04    0.04    0.01    0.00
   12  159.41   23.40   28.64   28.19   69.01    0.00  283.14   34.71   42.88   92.36    0.03    0.01    0.03    1.12    0.04     0.06    0.06    0.01    0.00

 2011 1639.87  220.03  181.20  193.45  353.19    0.00  283.14  859.93 1229.30  694.19    0.57    0.35    0.30    8.03   35.24     1.21    0.56    0.10    0.00
1
    SWAT Jun 11 2014    VER 2012/Rev 627                                            

    General Input/Output section (file.cio):                                        
[...]
   4161  55   HARTSELL   .210E+02   52.20  242.06    0.23    0.00  214.92    0.00    0.20 1450.69   31.77  412.01  851.47    0.09    0.48    0.49   16.29    5.54   31.77
   4162  55   HARTSELL   .268E+02   52.20  242.06    1.31    0.00  317.59    0.00    0.20 1450.69   24.80  379.45  926.27    0.02    3.27    0.07   11.91   10.64   24.80
   4163  55   HARTSELL   .533E+02   52.20  242.06    0.52    0.00  318.72    0.00    0.20 1450.69   25.11  364.41  928.61    0.01    1.09    0.03   11.93   10.66   25.11
   4164  55   HARTSELL   .217E+02   52.20  242.06    0.23    0.00  319.13    0.00    0.20 1450.69   25.21  359.93  929.27    0.00    0.43    0.01   11.94   10.67   25.21
   4165  55   HARTSELL   .865E+01   52.20  242.06    0.12    0.00  319.22    0.00    0.20 1450.69   25.27  358.50  929.47    0.00    0.22    0.00   11.95   10.67   25.27
   4166  55   ETOWAH     .461E+01   52.20  484.12    0.21    0.00    0.00    0.00    0.20 1450.69   33.35  385.50  883.28    0.00    0.01    0.01    6.49    0.29   33.35
   4167  55   ETOWAH     .577E+01   52.20  484.12    0.52    0.00    0.00    0.00    0.20 1450.69   32.96  390.82  882.55    0.00    0.02    0.02    6.51    0.29   32.96
   4168  55   ETOWAH     .207E+02   52.20  484.12    2.59    0.00    0.00    0.00    0.20 1450.69   21.85  532.95  852.80    0.01    0.33    0.05    7.36    0.31   21.85
   4169  55   ETOWAH     .749E+01   52.20  484.12    0.11    0.00    0.00    0.00    0.20 1450.69   33.47  383.89  883.49    0.00    0.00    0.00    6.48    0.29   33.47
   4170  55   NELLA      .109E+02   52.20  483.11    0.56    0.00    0.00    0.00    0.20 1450.69   33.97  387.20  886.31    0.00    0.02    0.01    7.62    0.35   33.97
   4171  55   NELLA      .346E+01   52.20  483.11    0.23    0.00    0.00    0.00    0.20 1450.69   34.38  382.13  887.01    0.00    0.01    0.00    7.60    0.35   34.38
   4172  55   NELLA      .344E+01   52.20  483.11    0.11    0.00    0.00    0.00    0.20 1450.69   34.49  380.54  887.23    0.00    0.00    0.00    7.59    0.35   34.49
   4173  55   NELLA      .425E+02   52.20  483.11    2.42    0.00    0.00    0.00    0.20 1450.69   25.23  512.53  861.32    0.01    0.37    0.03    8.28    0.36   25.23
   4174  55   HARTSELL   .733E+01   52.20  242.06    0.12    0.00    0.00    0.00    0.20 1450.69   28.11  382.82  893.07    0.00    0.01    0.00    5.52    0.26   28.11
   4175  55   HARTSELL   .554E+02   52.20  242.06    0.54    0.00    0.00    0.00    0.20 1450.69   27.88  389.09  892.24    0.01    0.03    0.01    5.54    0.26   27.88
   4176  55   HARTSELL   .701E+02   52.20  242.06    2.07    0.00    0.00    0.00    0.20 1450.69   27.18  411.94  888.87    0.03    0.12    0.06    5.61    0.26   27.18
   4177  55   HARTSELL   .174E+02   52.20  242.06    0.23    0.00    0.00    0.00    0.20 1450.69   28.03  384.29  892.87    0.00    0.01    0.00    5.53    0.26   28.03
   4178  55   NELLA      .161E+02   52.20  483.11    0.23    0.00    0.00    0.00    0.20 1450.69   34.38  382.13  887.01    0.00    0.01    0.00    7.60    0.35   34.38
   4179  55   NELLA      .151E+02   52.20  483.11    0.11    0.00    0.00    0.00    0.20 1450.69   34.49  380.54  887.23    0.00    0.00    0.00    7.59    0.35   34.49
   4180  55   NELLA      .649E+02   52.20  483.11    0.58    0.00    0.00    0.00    0.20 1450.69   33.96  387.41  886.28    0.00    0.02    0.01    7.62    0.35   33.96
   4181  55   NELLA      .587E+03   52.20  483.11    3.73    0.00    0.00    0.00    0.20 1450.69   18.60  568.17  840.55    0.01    0.47    0.03    8.52    0.36   18.60
   4182  55   HARTSELL   .522E+03   52.20  242.06    2.00    0.00    0.00    0.00    0.20 1450.69   24.45  470.50  878.01    0.02    0.34    0.04    5.80    0.27   24.45
   4183  55   HARTSELL   .741E+02   52.20  242.06    0.23    0.00    0.00    0.00    0.20 1450.69   28.03  384.29  892.87    0.00    0.01    0.01    5.53    0.26   28.03
   4184  55   HARTSELL   .266E+03   52.20  242.06    0.56    0.00    0.00    0.00    0.20 1450.69   27.88  389.30  892.21    0.01    0.03    0.01    5.54    0.26   27.88
   4185  55   HARTSELL   .314E+02   52.20  242.06    0.12    0.00    0.00    0.00    0.20 1450.69   28.11  382.82  893.07    0.00    0.01    0.00    5.52    0.26   28.11
   4186  55   TALBOTT    .470E+03   52.20  273.05    3.13    0.00    0.00    0.00    0.20 1450.69    0.74  754.12  696.40    0.12    0.41    0.15    5.78    0.21    0.74
   4187  55   TALBOTT    .637E+01   52.20  273.05    0.11    0.00    0.00    0.00    0.20 1450.69   32.15  412.15  848.97    0.00    0.01    0.01    4.72    0.21   32.15
   4188  55   TALBOTT    .444E+01   52.20  273.05    0.23    0.00    0.00    0.00    0.20 1450.69   32.05  416.30  848.62    0.01    0.02    0.02    4.73    0.21   32.05
   4189  55   TALBOTT    .153E+02   52.20  273.05    0.58    0.00    0.00    0.00    0.20 1450.69   31.72  429.31  847.46    0.03    0.07    0.06    4.74    0.21   31.72
   4190  55   WATER      .674E+01   52.20    7.37    0.21    0.00    0.00    0.00    0.20 1450.69    0.00    0.00 1193.03    0.00    0.00    0.00    0.00    0.00    0.00
   4191  55   WATER      .481E+01   52.20    7.37    0.44    0.00    0.00    0.00    0.20 1450.69    0.00    0.00 1193.03    0.00    0.00    0.00    0.00    0.00    0.00
   4192  55   WATER      .275E+03   52.20    7.37    0.07    0.00    0.00    0.00    0.20 1450.69    0.00    0.00 1193.03    0.00    0.00    0.00    0.00    0.00    0.00
   4193  55   WATER      .249E+01   52.20    7.37    1.71    0.00    0.00    0.00    0.20 1450.69    0.00    0.00 1193.03    0.00    0.00    0.00    0.00    0.00    0.00
   4194  55   ETOWAH     .872E+01   97.08  484.12    0.52    0.00  182.19    0.00    0.20 1450.69 1014.00    3.07  444.63    0.95    1.51    1.51   11.37    8.06 1014.00
   4195  55   ETOWAH     .114E+02   97.08  484.12    1.67    0.00  174.71    0.00    0.20 1450.69 1012.82   36.79  412.21    1.31    2.25    1.50   10.21    7.25 1012.82
   4196  55   ETOWAH     .552E+01   97.08  484.12    0.12    0.00  183.00    0.00    0.20 1450.69 1014.10    0.42  447.18    0.75    1.60    1.72   11.47    8.13 1014.08
   4197  55   ETOWAH     .533E+01   97.08  484.12    0.23    0.00  182.64    0.00    0.20 1450.69 1014.07    1.06  446.57    0.82    1.63    1.80   11.44    8.11 1014.07
   4198  55   NELLA      .273E+01   97.08  483.11    0.12    0.00  186.42    0.00    0.20 1450.69 1014.40    0.35  446.80    0.74    1.93    2.46   11.72    8.31 1014.39
   4199  55   NELLA      .114E+02   97.08  483.11    0.54    0.00  185.84    0.00    0.20 1450.69 1014.33    2.63  444.60    0.92    1.43    1.28   11.64    8.25 1014.33
   4200  55   NELLA      .174E+02   97.08  483.11    1.78    0.00  176.83    0.00    0.20 1450.69 1013.35   32.44  415.89    1.18    1.99    1.22   10.64    7.55 1013.35
   4201  55   NELLA      .397E+01   97.08  483.11    0.23    0.00  186.28    0.00    0.20 1450.69 1014.39    0.88  446.29    0.81    1.75    2.05   11.70    8.30 1014.38
   4202  55   HARTSELL   .304E+02   97.08  242.06    0.23    0.00  175.69    0.00    0.20 1450.69 1018.64    0.59  435.83    0.82    1.06    0.74   12.02    8.53 1018.64
   4203  55   HARTSELL   .768E+02   97.08  242.06    0.52    0.00  175.58    0.00    0.20 1450.69 1018.61    1.73  434.73    0.93    0.96    0.55   11.99    8.51 1018.61
   4204  55   HARTSELL   .140E+02   97.08  242.06    0.12    0.00  175.71    0.00    0.20 1450.69 1018.65    0.24  436.17    0.75    1.20    1.05   12.03    8.54 1018.64
   4205  55   HARTSELL   .476E+02   97.08  242.06    1.50    0.00  175.10    0.00    0.20 1450.69 1018.48    6.19  430.42    1.18    1.09    0.77   11.85    8.42 1018.48
   4206  55   ETOWAH     .149E+02   52.20  484.12    2.54    0.00    0.00    0.00    0.20 1450.69   24.85  488.26  872.17    0.01    0.25    0.04    7.94    0.00   24.86
   4207  55   ETOWAH     .586E+01   52.20  484.12    0.52    0.00    0.00    0.00    0.20 1450.69   32.79  385.38  889.99    0.00    0.02    0.01    7.44    0.00   32.79
   4208  55   ETOWAH     .513E+01   52.20  484.12    0.11    0.00    0.00    0.00    0.20 1450.69   33.18  378.63  890.83    0.00    0.00    0.00    7.41    0.00   33.18
   4209  55   ETOWAH     .357E+01   52.20  484.12    0.23    0.00    0.00    0.00    0.20 1450.69   33.08  380.37  890.61    0.00    0.01    0.00    7.42    0.00   33.08
   4210  55   NELLA      .267E+01   52.20  483.11    0.23    0.00    0.00    0.00    0.20 1450.69   33.89  374.82  897.38    0.00    0.01    0.00    8.67    0.00   33.89
   4211  55   NELLA      .193E+01   52.20  483.11    0.11    0.00    0.00    0.00    0.20 1450.69   33.98  373.25  897.58    0.00    0.00    0.00    8.66    0.00   33.98
   4212  55   NELLA      .375E+02   52.20  483.11    2.31    0.00    0.00    0.00    0.20 1450.69   24.91  501.36  873.13    0.01    0.35    0.02    9.24    0.00   24.91
   4213  55   NELLA      .104E+02   52.20  483.11    0.56    0.00    0.00    0.00    0.20 1450.69   33.61  379.75  896.74    0.00    0.02    0.01    8.69    0.00   33.61
   4214  55   HARTSELL   .418E+02   52.20  242.06    2.17    0.00    0.00    0.00    0.20 1450.69   26.74  409.91  892.92    0.03    0.12    0.04    6.38    0.00   26.74
   4215  55   HARTSELL   .376E+01   52.20  242.06    0.12    0.00    0.00    0.00    0.20 1450.69   27.52  380.46  896.93    0.00    0.01    0.00    6.26    0.00   27.52
   4216  55   HARTSELL   .905E+01   52.20  242.06    0.23    0.00    0.00    0.00    0.20 1450.69   27.45  381.91  896.75    0.00    0.01    0.00    6.27    0.00   27.45
   4217  55   HARTSELL   .303E+02   52.20  242.06    0.56    0.00    0.00    0.00    0.20 1450.69   27.32  386.87  896.11    0.01    0.03    0.01    6.29    0.00   27.32
   4218  55   ETOWAH     .869E+01   52.20  484.12    1.89    0.00    0.00    0.00    0.20 1450.69   31.64  517.20  812.99    0.32    0.37    0.89    0.54    0.20   31.64
   4219  55   ETOWAH     .395E+01   52.20  484.12    0.21    0.00    0.00    0.00    0.20 1450.69   37.89  420.67  830.63    0.02    0.01    0.09    0.50    0.19   37.89
   4220  55   ETOWAH     .548E+01   52.20  484.12    0.52    0.00    0.00    0.00    0.20 1450.69   37.65  426.06  829.80    0.07    0.03    0.27    0.50    0.19   37.65
   4221  55   ETOWAH     .725E+01   52.20  484.12    0.11    0.00    0.00    0.00    0.20 1450.69   37.96  419.04  830.88    0.01    0.01    0.04    0.50    0.19   37.96
   4222  55   NELLA      .286E+02   52.20  483.11    2.14    0.00    0.00    0.00    0.20 1450.69   33.60  509.77  818.78    0.22    0.44    0.65    0.62    0.24   33.60
   4223  55   NELLA      .431E+01   52.20  483.11    0.11    0.00    0.00    0.00    0.20 1450.69   38.66  414.77  836.25    0.00    0.01    0.02    0.59    0.23   38.66
   4224  55   NELLA      .320E+01   52.20  483.11    0.23    0.00    0.00    0.00    0.20 1450.69   38.58  416.40  836.00    0.01    0.02    0.05    0.59    0.23   38.58
   4225  55   NELLA      .106E+02   52.20  483.11    0.56    0.00    0.00    0.00    0.20 1450.69   38.35  421.50  835.22    0.04    0.04    0.16    0.59    0.23   38.35
   4226  55   HARTSELL   .331E+02   52.20  242.06    0.56    0.00    0.00    0.00    0.20 1450.69   30.19  414.85  855.16    0.09    0.04    0.22    0.38    0.16   30.19
   4227  55   HARTSELL   .476E+02   52.20  242.06    2.04    0.00    0.00    0.00    0.20 1450.69   29.95  437.34  852.00    0.44    0.16    0.73    0.39    0.16   29.95
   4228  55   HARTSELL   .924E+01   52.20  242.06    0.23    0.00    0.00    0.00    0.20 1450.69   30.26  409.75  855.81    0.02    0.01    0.06    0.38    0.16   30.26
   4229  55   HARTSELL   .346E+01   52.20  242.06    0.12    0.00    0.00    0.00    0.20 1450.69   30.32  408.26  856.00    0.01    0.01    0.02    0.38    0.16   30.32
   4230  55   NELLA      .216E+02   52.20  483.11    0.23    0.00    0.00    0.00    0.20 1450.69   33.66  371.21  902.46    0.01    0.02    0.04    0.19    0.00   33.66
   4231  55   NELLA      .156E+02   52.20  483.11    0.11    0.00    0.00    0.00    0.20 1450.69   33.77  369.61  902.69    0.00    0.01    0.01    0.19    0.00   33.77
   4232  55   NELLA      .858E+02   52.20  483.11    2.11    0.00    0.00    0.00    0.20 1450.69   31.75  399.30  898.31    0.13    0.16    0.49    0.20    0.00   31.75
   4233  55   NELLA      .727E+02   52.20  483.11    0.54    0.00    0.00    0.00    0.20 1450.69   33.35  376.04  901.78    0.03    0.04    0.11    0.19    0.00   33.35
   4234  55   HARTSELL   .174E+03   52.20  242.06    0.23    0.00    0.00    0.00    0.20 1450.69   27.45  377.61  902.49    0.02    0.02    0.07    0.11    0.00   27.45
   4235  55   HARTSELL   .686E+02   52.20  242.06    0.12    0.00    0.00    0.00    0.20 1450.69   27.54  376.15  902.66    0.01    0.01    0.03    0.11    0.00   27.54
   4236  55   HARTSELL   .484E+03   52.20  242.06    0.54    0.00    0.00    0.00    0.20 1450.69   27.28  382.35  901.92    0.06    0.04    0.18    0.11    0.00   27.28
   4237  55   HARTSELL   .343E+03   52.20  242.06    1.47    0.00    0.00    0.00    0.20 1450.69   26.70  399.13  899.72    0.22    0.13    0.56    0.11    0.00   26.70



                AVE MONTHLY BASIN VALUES
                   SNOW                      WATER               SED
  MON     RAIN     FALL   SURF Q    LAT Q    YIELD       ET    YIELD      PET
          (MM)     (MM)     (MM)     (MM)     (MM)     (MM)   (T/HA)     (MM)
    1   131.80    15.62    20.45    19.20    70.98    30.70     0.05    41.45
    2   119.79    12.13    19.32    16.56    67.78    39.54     0.07    53.31
    3   131.99     3.33    17.54    17.05    69.60    69.70     0.04    99.62
    4   118.82     0.50    13.32    12.63    54.00    89.07     0.04   135.82
    5   126.11     0.02    13.30    11.70    49.10   104.47     0.03   155.02
    6   122.13     0.00     9.58    10.47    37.87    97.81     0.02   136.98
    7   126.47     0.00     9.49    10.87    36.43   102.82     0.02   139.76
    8   100.93     0.00     7.62     8.83    29.80    90.69     0.01   129.55
    9   114.24     0.00    10.79     9.52    31.52    70.42     0.02   105.23
   10    83.54     0.03     6.84     8.44    28.77    59.75     0.01    93.89
   11   117.93     1.39    11.16    11.65    35.78    42.16     0.01    61.43
   12   138.96     9.91    18.89    18.73    61.39    30.41     0.02    40.13

     AVE ANNUAL BASIN STRESS DAYS
               WATER STRESS DAYS =     9.67
               TEMPERATURE STRESS DAYS =    57.42
               NITROGEN STRESS DAYS =    88.09
               PHOSPHORUS STRESS DAYS =     0.08
               AERATION STRESS DAYS =     0.08
1
    SWAT Jun 11 2014    VER 2012/Rev 627                                            

    General Input/Output section (file.cio):                                        
    11/15/2017 12:00:00 AM ARCGIS-SWAT interface AV                                 
                                                                                    
         AVE ANNUAL BASIN VALUES

              PRECIP =   1433.7 MM
              SNOW FALL =   43.05 MM
              SNOW MELT =    42.81 MM
              SUBLIMATION =     0.24 MM
              SURFACE RUNOFF Q =   158.46 MM
              LATERAL SOIL Q =  155.79 MM
              TILE Q =     0.00 MM
              GROUNDWATER (SHAL AQ) Q =   170.23 MM
              GROUNDWATER (DEEP AQ) Q =    89.21 MM
              REVAP (SHAL AQ => SOIL/PLANTS) =   19.70 MM
              DEEP AQ RECHARGE =    89.44 MM
              TOTAL AQ RECHARGE =  279.37 MM
              TOTAL WATER YLD =   573.60 MM
              PERCOLATION OUT OF SOIL =  282.76 MM
              ET =    827.9 MM
              PET =   1192.7MM
              TRANSMISSION LOSSES =     0.00 MM
              SEPTIC INFLOW =       0.00 MM
              TOTAL SEDIMENT LOADING =     0.324 T/HA
              TILE FROM IMPOUNDED WATER =     0.000 (MM)
              EVAPORATION FROM IMPOUNDED WATER =     0.000 (MM)
              SEEPAGE INTO SOIL FROM IMPOUNDED WATER =    0.000 (MM)
              OVERFLOW FROM IMPOUNDED WATER =    0.000 (MM)
1
    SWAT Jun 11 2014    VER 2012/Rev 627                                            

    General Input/Output section (file.cio):                                        
    11/15/2017 12:00:00 AM ARCGIS-SWAT interface AV                                 
                                                                                    
              AVE ANNUAL BASIN VALUES


              NUTRIENTS
                   ORGANIC N =     0.702 (KG/HA)
                   ORGANIC P =     0.067 (KG/HA)
                   NO3 YIELD (SQ) =     0.230 (KG/HA)
                   NO3 YIELD (LAT) =    0.289 (KG/HA)
                   NO3 YIELD (TILE) =    0.000 (KG/HA)
                   SOLP YIELD (TILE) =    0.000(KG/HA)
                   SOLP YIELD (SURF INLET RISER) =    0.000 (KG/HA)
                   SOL P YIELD =    0.365 (KG/HA)
                   NO3 LEACHED =     5.007 (KG/HA)
                   P LEACHED =     1.197 (KG/HA)
                   N UPTAKE =    36.370 (KG/HA)
                   P UPTAKE =    9.806 (KG/HA)
                   NO3 YIELD (GWQ) =     2.557 (KG/HA)
                   ACTIVE TO SOLUTION P FLOW =        -8.177 (KG/HA)
                   ACTIVE TO STABLE P FLOW =        -6.129 (KG/HA)
                   N FERTILIZER APPLIED =    26.837 (KG/HA)
                   P FERTILIZER APPLIED =     1.498 (KG/HA)
                   N FIXATION =     0.593 (KG/HA)
                   DENITRIFICATION =     1.041 (KG/HA)
                   HUMUS MIN ON ACTIVE ORG N =     3.376 (KG/HA)
                   ACTIVE TO STABLE ORG N =    -0.959 (KG/HA)
                   HUMUS MIN ON ACTIVE ORG P =    0.256 (KG/HA)
                   MIN FROM FRESH ORG N =   13.775 (KG/HA)
                   MIN FROM FRESH ORG P =    4.659 (KG/HA)
                   NO3 IN RAINFALL =     0.000 (KG/HA)
                   INITIAL NO3 IN SOIL =      52.899 (KG/HA)
                   FINAL NO3 IN SOIL =         2.863 (KG/HA)
                   INITIAL ORG N IN SOIL =    5179.836 (KG/HA)
                   FINAL ORG N IN SOIL =      5170.701 (KG/HA)
                   INITIAL MIN P IN SOIL =   14513.702 (KG/HA)
                   FINAL MIN P IN SOIL =     14197.218 (KG/HA)
                   INITIAL ORG P IN SOIL =     189.319 (KG/HA)
                   FINAL ORG P IN SOIL =     227.810 (KG/HA)
                   NO3 IN FERT =    26.837 (KG/HA)
                   AMMONIA IN FERT =     0.000 (KG/HA)
                   ORG N IN FERT =     0.000 (KG/HA)
                   MINERAL P IN FERT =     1.498 (KG/HA)
                   ORG P IN FERT =     0.000 (KG/HA)
                   N REMOVED IN YIELD =    16.797 (KG/HA)
                   P REMOVED IN YIELD =     3.310 (KG/HA)
                   AMMONIA VOLATILIZATION =     0.000 (KG/HA)
                   AMMONIA NITRIFICATION =      0.000 (KG/HA)
                   NO3 EVAP-LAYER 2 TO 1 =    2.033

                   DIE-GRO P Q =       0.0 (No/HA)
                   DIE-GRO LP Q =       0.0 (No/HA)
                   DIE-GRO P SED =      0.0 (No/HA)
                   DIE-GRO LP SED =      0.0 (No/HA)
                   BACT P RUNOFF =      0.0 (No/HA)
                   BACT LP RUNOFF =      0.0 (No/HA)
                   BACT P SEDIMENT =      0.0 (No/HA)
                   BACT LP SEDIMENT =      0.0 (No/HA)
                   BACT P INCORP =      0.0 (No/HA)
                   BACT LP INCORP =      0.0 (No/HA)

                   NITRATE SEPTIC =         0.00 (kg/ha)
                   AMMONIA SEPTIC =         0.00 (kg/ha)
                   ORG N SEPTIC =         0.00 (kg/ha)
                   FRESH ORGN SEPTIC =         0.00 (kg/ha)
                   ORG P SEPTIC =         0.00 (kg/ha)
                   FRESH ORGP SEPTIC =         0.00 (kg/ha)
                   SOL P SEPTIC =         0.00 (kg/ha)
                   BOD SEPTIC =         0.00 (kg/ha)
